USER    Estimated Free Energy of Binding    =   +1.10 kcal/mol  [=(1)+(2)+(3)-(4)]
REMARK  7 active torsions:
REMARK  status: ('A' for Active; 'I' for Inactive)
REMARK    1  A    between atoms: C_1  and  N_2 
REMARK    2  A    between atoms: N_2  and  C_16 
REMARK    3  A    between atoms: C_10  and  N_11 
REMARK       I    between atoms: N_11  and  C_25 
REMARK    4  A    between atoms: N_13  and  C_32 
REMARK    5  A    between atoms: C_17  and  C_20 
REMARK    6  A    between atoms: C_25  and  C_26 
REMARK    7  A    between atoms: C_31  and  C_32 
ROOT
ATOM      1  C   LIG     1      21.603   4.456  -0.345 +0.00 -0.00    +0.057 A 
ATOM      2  C   LIG     1      21.971   4.637  -1.754 +0.00 +0.00    -0.035 A 
ATOM      3  C   LIG     1      20.922   4.877  -2.703 +0.00 -0.00    +0.011 A 
ATOM      4  C   LIG     1      19.545   4.941  -2.278 +0.00 -0.00    +0.030 A 
ATOM      5  C   LIG     1      19.185   4.769  -0.909 +0.00 -0.00    +0.037 A 
ATOM      6  C   LIG     1      20.244   4.522   0.057 +0.00 -0.00    +0.060 A 
ATOM      7  C   LIG     1      23.429   4.586  -2.266 +0.00 -0.00    +0.050 C 
ENDROOT
BRANCH   5   8
ATOM      8  N   LIG     1      17.789   4.855  -0.559 +0.00 +0.02    -0.323 N 
ATOM      9  C   LIG     1      17.108   4.136   0.410 +0.00 -0.02    +0.256 C 
ATOM     10  O   LIG     1      17.554   3.152   0.981 +0.00 +0.02    -0.267 OA
ATOM     11  H   LIG     1      17.255   5.504  -1.072 +0.00 -0.01    +0.169 HD
BRANCH   9  12
ATOM     12  C   LIG     1      15.728   4.564   0.790 +0.00 -0.00    +0.032 A 
ATOM     13  C   LIG     1      15.004   5.572   0.012 +0.00 -0.00    +0.017 A 
ATOM     14  C   LIG     1      13.679   5.980   0.409 +0.00 -0.00    +0.010 A 
ATOM     15  C   LIG     1      13.070   5.376   1.592 +0.00 +0.00    -0.033 A 
ATOM     16  C   LIG     1      13.808   4.374   2.342 +0.00 -0.00    +0.010 A 
ATOM     17  C   LIG     1      15.107   3.973   1.956 +0.00 -0.00    +0.017 A 
BRANCH  15  18
ATOM     18  C   LIG     1      11.669   5.765   2.102 +0.00 -0.02    +0.273 C 
BRANCH  18  19
ATOM     19  N   LIG     1      11.596   6.527   3.384 +0.00 +0.00    -0.064 N 
ATOM     20  C   LIG     1      11.450   5.586   4.554 +0.00 -0.02    +0.263 C 
ATOM     21  C   LIG     1      11.351   6.361   5.897 +0.00 -0.02    +0.262 C 
ATOM     22  N   LIG     1      12.560   7.265   6.091 +0.00 +0.01    -0.072 N 
ATOM     23  C   LIG     1      12.711   8.239   4.920 +0.00 -0.02    +0.262 C 
ATOM     24  C   LIG     1      12.520   8.018   7.353 +0.00 -0.02    +0.269 C 
ATOM     25  H   LIG     1      13.368   6.645   6.129 +0.00 -0.02    +0.279 HD
ATOM     26  C   LIG     1      12.815   7.432   3.585 +0.00 -0.02    +0.263 C 
ATOM     27  H   LIG     1      10.772   7.126   3.330 +0.00 -0.02    +0.280 HD
ENDBRANCH  18  19
ENDBRANCH  15  18
ENDBRANCH   9  12
ENDBRANCH   5   8
BRANCH   1  28
ATOM     28  N   LIG     1      22.579   4.217   0.625 +0.00 +0.01    -0.188 N 
ATOM     29  H   LIG     1      23.415   4.738   0.613 +0.00 -0.01    +0.184 HD
BRANCH  28  30
ATOM     30  C   LIG     1      22.385   3.253   1.603 +0.00 -0.05    +0.727 A 
ATOM     31  N   LIG     1      21.179   3.195   2.205 +0.00 +0.00    -0.062 NA
ATOM     32  C   LIG     1      20.906   2.276   3.194 +0.00 -0.01    +0.089 A 
ATOM     33  C   LIG     1      21.920   1.347   3.602 +0.00 -0.00    +0.053 A 
ATOM     34  C   LIG     1      23.173   1.429   2.954 +0.00 -0.01    +0.139 A 
ATOM     35  N   LIG     1      23.385   2.374   1.974 +0.00 +0.01    -0.075 NA
BRANCH  32  36
ATOM     36  C   LIG     1      19.531   2.317   3.786 +0.00 -0.00    +0.011 A 
ATOM     37  C   LIG     1      18.847   1.130   4.283 +0.00 -0.00    +0.017 A 
ATOM     38  C   LIG     1      17.520   1.224   4.846 +0.00 -0.00    +0.020 A 
ATOM     39  C   LIG     1      16.892   2.518   4.901 +0.00 -0.01    +0.116 A 
ATOM     40  N   LIG     1      17.561   3.654   4.421 +0.00 +0.02    -0.272 NA
ATOM     41  C   LIG     1      18.840   3.594   3.875 +0.00 -0.01    +0.130 A 
ENDBRANCH  32  36
ENDBRANCH  28  30
ENDBRANCH   1  28
TORSDOF 7
TER
ENDMDL
