USER    Estimated Free Energy of Binding    =   +1.10 kcal/mol  [=(1)+(2)+(3)-(4)]
REMARK  7 active torsions:
REMARK  status: ('A' for Active; 'I' for Inactive)
REMARK    1  A    between atoms: C_1  and  N_2 
REMARK    2  A    between atoms: N_2  and  C_16 
REMARK    3  A    between atoms: C_10  and  N_11 
REMARK       I    between atoms: N_11  and  C_25 
REMARK    4  A    between atoms: N_13  and  C_32 
REMARK    5  A    between atoms: C_17  and  C_20 
REMARK    6  A    between atoms: C_25  and  C_26 
REMARK    7  A    between atoms: C_31  and  C_32 
ROOT
ATOM      1  C   LIG     1      11.985   2.347   0.604 +0.00 -0.00    +0.057 A 
ATOM      2  C   LIG     1      11.715   0.983   0.135 +0.00 +0.00    -0.035 A 
ATOM      3  C   LIG     1      12.828   0.171  -0.268 +0.00 -0.00    +0.011 A 
ATOM      4  C   LIG     1      14.173   0.686  -0.208 +0.00 -0.00    +0.030 A 
ATOM      5  C   LIG     1      14.440   2.009   0.251 +0.00 -0.00    +0.037 A 
ATOM      6  C   LIG     1      13.315   2.838   0.657 +0.00 -0.00    +0.060 A 
ATOM      7  C   LIG     1      10.294   0.377   0.056 +0.00 -0.00    +0.050 C 
ENDROOT
BRANCH   5   8
ATOM      8  N   LIG     1      15.812   2.450   0.291 +0.00 +0.02    -0.323 N 
ATOM      9  C   LIG     1      16.293   3.708   0.613 +0.00 -0.02    +0.256 C 
ATOM     10  O   LIG     1      15.599   4.710   0.710 +0.00 +0.02    -0.267 OA
ATOM     11  H   LIG     1      16.489   1.774   0.060 +0.00 -0.01    +0.169 HD
BRANCH   9  12
ATOM     12  C   LIG     1      17.759   3.882   0.848 +0.00 -0.00    +0.032 A 
ATOM     13  C   LIG     1      18.646   2.727   1.002 +0.00 -0.00    +0.017 A 
ATOM     14  C   LIG     1      20.054   2.923   1.245 +0.00 -0.00    +0.010 A 
ATOM     15  C   LIG     1      20.582   4.282   1.334 +0.00 +0.00    -0.033 A 
ATOM     16  C   LIG     1      19.680   5.410   1.172 +0.00 -0.00    +0.010 A 
ATOM     17  C   LIG     1      18.300   5.222   0.935 +0.00 -0.00    +0.017 A 
BRANCH  15  18
ATOM     18  C   LIG     1      22.067   4.585   1.611 +0.00 -0.02    +0.273 C 
BRANCH  18  19
ATOM     19  N   LIG     1      22.406   5.184   2.937 +0.00 +0.00    -0.064 N 
ATOM     20  C   LIG     1      22.395   6.691   2.856 +0.00 -0.02    +0.263 C 
ATOM     21  C   LIG     1      22.767   7.335   4.222 +0.00 -0.02    +0.262 C 
ATOM     22  N   LIG     1      21.829   6.854   5.320 +0.00 +0.01    -0.072 N 
ATOM     23  C   LIG     1      21.841   5.328   5.425 +0.00 -0.02    +0.262 C 
ATOM     24  C   LIG     1      22.132   7.439   6.634 +0.00 -0.02    +0.269 C 
ATOM     25  H   LIG     1      20.898   7.173   5.049 +0.00 -0.02    +0.279 HD
ATOM     26  C   LIG     1      21.458   4.710   4.041 +0.00 -0.02    +0.263 C 
ATOM     27  H   LIG     1      23.345   4.868   3.178 +0.00 -0.02    +0.280 HD
ENDBRANCH  18  19
ENDBRANCH  15  18
ENDBRANCH   9  12
ENDBRANCH   5   8
BRANCH   1  28
ATOM     28  N   LIG     1      10.944   3.186   1.007 +0.00 +0.01    -0.188 N 
ATOM     29  H   LIG     1      10.098   3.189   0.502 +0.00 -0.01    +0.184 HD
BRANCH  28  30
ATOM     30  C   LIG     1      11.086   4.013   2.110 +0.00 -0.05    +0.727 A 
ATOM     31  N   LIG     1      12.261   4.658   2.272 +0.00 +0.00    -0.062 NA
ATOM     32  C   LIG     1      12.490   5.490   3.345 +0.00 -0.01    +0.089 A 
ATOM     33  C   LIG     1      11.460   5.690   4.323 +0.00 -0.00    +0.053 A 
ATOM     34  C   LIG     1      10.239   5.004   4.129 +0.00 -0.01    +0.139 A 
ATOM     35  N   LIG     1      10.073   4.183   3.036 +0.00 +0.01    -0.075 NA
BRANCH  32  36
ATOM     36  C   LIG     1      13.836   6.142   3.412 +0.00 -0.00    +0.011 A 
ATOM     37  C   LIG     1      14.058   7.540   3.063 +0.00 -0.00    +0.017 A 
ATOM     38  C   LIG     1      15.378   8.121   3.146 +0.00 -0.00    +0.020 A 
ATOM     39  C   LIG     1      16.466   7.284   3.579 +0.00 -0.01    +0.116 A 
ATOM     40  N   LIG     1      16.240   5.941   3.914 +0.00 +0.02    -0.272 NA
ATOM     41  C   LIG     1      14.980   5.354   3.845 +0.00 -0.01    +0.130 A 
ENDBRANCH  32  36
ENDBRANCH  28  30
ENDBRANCH   1  28
TORSDOF 7
TER
ENDMDL
