USER    Estimated Free Energy of Binding    =   +1.10 kcal/mol  [=(1)+(2)+(3)-(4)]
REMARK  7 active torsions:
REMARK  status: ('A' for Active; 'I' for Inactive)
REMARK    1  A    between atoms: C_1  and  N_2 
REMARK    2  A    between atoms: N_2  and  C_16 
REMARK    3  A    between atoms: C_10  and  N_11 
REMARK       I    between atoms: N_11  and  C_25 
REMARK    4  A    between atoms: N_13  and  C_32 
REMARK    5  A    between atoms: C_17  and  C_20 
REMARK    6  A    between atoms: C_25  and  C_26 
REMARK    7  A    between atoms: C_31  and  C_32 
ROOT
ATOM      1  C   LIG     1      15.880   2.190  -3.712 +0.00 -0.00    +0.057 A 
ATOM      2  C   LIG     1      16.878   1.383  -4.425 +0.00 +0.00    -0.035 A 
ATOM      3  C   LIG     1      18.116   1.093  -3.759 +0.00 -0.00    +0.011 A 
ATOM      4  C   LIG     1      18.365   1.581  -2.425 +0.00 -0.00    +0.030 A 
ATOM      5  C   LIG     1      17.397   2.361  -1.729 +0.00 -0.00    +0.037 A 
ATOM      6  C   LIG     1      16.141   2.661  -2.400 +0.00 -0.00    +0.060 A 
ATOM      7  C   LIG     1      16.662   0.828  -5.852 +0.00 -0.00    +0.050 C 
ENDROOT
BRANCH   5   8
ATOM      8  N   LIG     1      17.715   2.806  -0.395 +0.00 +0.02    -0.323 N 
ATOM      9  C   LIG     1      17.370   4.004   0.209 +0.00 -0.02    +0.256 C 
ATOM     10  O   LIG     1      16.914   4.970  -0.384 +0.00 +0.02    -0.267 OA
ATOM     11  H   LIG     1      18.242   2.181   0.154 +0.00 -0.01    +0.169 HD
BRANCH   9  12
ATOM     12  C   LIG     1      17.574   4.155   1.682 +0.00 -0.00    +0.032 A 
ATOM     13  C   LIG     1      18.632   3.423   2.382 +0.00 -0.00    +0.017 A 
ATOM     14  C   LIG     1      18.796   3.575   3.806 +0.00 -0.00    +0.010 A 
ATOM     15  C   LIG     1      17.899   4.464   4.539 +0.00 +0.00    -0.033 A 
ATOM     16  C   LIG     1      16.861   5.183   3.819 +0.00 -0.00    +0.010 A 
ATOM     17  C   LIG     1      16.696   5.036   2.423 +0.00 -0.00    +0.017 A 
BRANCH  15  18
ATOM     18  C   LIG     1      17.988   4.670   6.063 +0.00 -0.02    +0.273 C 
BRANCH  18  19
ATOM     19  N   LIG     1      19.142   5.465   6.580 +0.00 +0.00    -0.064 N 
ATOM     20  C   LIG     1      20.310   4.562   6.891 +0.00 -0.02    +0.263 C 
ATOM     21  C   LIG     1      21.516   5.367   7.450 +0.00 -0.02    +0.262 C 
ATOM     22  N   LIG     1      21.934   6.461   6.478 +0.00 +0.01    -0.072 N 
ATOM     23  C   LIG     1      20.764   7.396   6.166 +0.00 -0.02    +0.262 C 
ATOM     24  C   LIG     1      23.078   7.251   6.956 +0.00 -0.02    +0.269 C 
ATOM     25  H   LIG     1      22.227   5.980   5.627 +0.00 -0.02    +0.279 HD
ATOM     26  C   LIG     1      19.570   6.560   5.599 +0.00 -0.02    +0.263 C 
ATOM     27  H   LIG     1      18.832   5.921   7.438 +0.00 -0.02    +0.280 HD
ENDBRANCH  18  19
ENDBRANCH  15  18
ENDBRANCH   9  12
ENDBRANCH   5   8
BRANCH   1  28
ATOM     28  N   LIG     1      14.658   2.507  -4.309 +0.00 +0.01    -0.188 N 
ATOM     29  H   LIG     1      14.158   1.811  -4.795 +0.00 -0.01    +0.184 HD
BRANCH  28  30
ATOM     30  C   LIG     1      14.140   3.790  -4.224 +0.00 -0.05    +0.727 A 
ATOM     31  N   LIG     1      14.194   4.418  -3.031 +0.00 +0.00    -0.062 NA
ATOM     32  C   LIG     1      13.693   5.689  -2.857 +0.00 -0.01    +0.089 A 
ATOM     33  C   LIG     1      13.099   6.378  -3.967 +0.00 -0.00    +0.053 A 
ATOM     34  C   LIG     1      13.057   5.699  -5.205 +0.00 -0.01    +0.139 A 
ATOM     35  N   LIG     1      13.573   4.425  -5.314 +0.00 +0.01    -0.075 NA
BRANCH  32  36
ATOM     36  C   LIG     1      13.808   6.274  -1.484 +0.00 -0.00    +0.011 A 
ATOM     37  C   LIG     1      14.017   7.696  -1.242 +0.00 -0.00    +0.017 A 
ATOM     38  C   LIG     1      14.121   8.209   0.104 +0.00 -0.00    +0.020 A 
ATOM     39  C   LIG     1      14.016   7.280   1.198 +0.00 -0.01    +0.116 A 
ATOM     40  N   LIG     1      13.814   5.913   0.954 +0.00 +0.02    -0.272 NA
ATOM     41  C   LIG     1      13.708   5.391  -0.331 +0.00 -0.01    +0.130 A 
ENDBRANCH  32  36
ENDBRANCH  28  30
ENDBRANCH   1  28
TORSDOF 7
TER
ENDMDL
