REMARK VINA RESULT:   -10.227      2.598     12.522
REMARK INTER + INTRA:         -15.376
REMARK INTER:                 -14.589
REMARK INTRA:                  -0.786
REMARK UNBOUND:                -0.964
REMARK  7 active torsions:
REMARK  status: ('A' for Active; 'I' for Inactive)
REMARK    1  A    between atoms: C_1  and  N_2 
REMARK    2  A    between atoms: N_2  and  C_16 
REMARK    3  A    between atoms: C_10  and  N_11 
REMARK       I    between atoms: N_11  and  C_25 
REMARK    4  A    between atoms: N_13  and  C_32 
REMARK    5  A    between atoms: C_17  and  C_20 
REMARK    6  A    between atoms: C_25  and  C_26 
REMARK    7  A    between atoms: C_31  and  C_32 
ROOT
HETATM    1  C   LIG     1      15.599  47.946  18.550  1.00  0.00     0.057 A 
HETATM    2  C   LIG     1      14.292  47.727  19.180  1.00  0.00    -0.035 A 
HETATM    3  C   LIG     1      13.250  48.682  18.930  1.00  0.00     0.011 A 
HETATM    4  C   LIG     1      13.487  49.823  18.081  1.00  0.00     0.030 A 
HETATM    5  C   LIG     1      14.754  50.037  17.465  1.00  0.00     0.037 A 
HETATM    6  C   LIG     1      15.815  49.074  17.717  1.00  0.00     0.060 A 
HETATM    7  C   LIG     1      13.980  46.519  20.093  1.00  0.00     0.050 C 
ENDROOT
BRANCH   5   8
HETATM    8  N   LIG     1      14.912  51.196  16.622  1.00  0.00    -0.323 N 
HETATM    9  C   LIG     1      15.997  51.531  15.829  1.00  0.00     0.256 C 
HETATM   10  O   LIG     1      17.091  50.989  15.889  1.00  0.00    -0.267 OA
HETATM   11  H   LIG     1      14.156  51.827  16.609  1.00  0.00     0.169 HD
BRANCH   9  12
HETATM   12  C   LIG     1      15.851  52.637  14.834  1.00  0.00     0.032 A 
HETATM   13  C   LIG     1      16.822  52.820  13.753  1.00  0.00     0.017 A 
HETATM   14  C   LIG     1      16.666  53.906  12.817  1.00  0.00     0.010 A 
HETATM   15  C   LIG     1      15.533  54.817  12.959  1.00  0.00    -0.033 A 
HETATM   16  C   LIG     1      14.582  54.609  14.038  1.00  0.00     0.010 A 
HETATM   17  C   LIG     1      14.731  53.547  14.958  1.00  0.00     0.017 A 
BRANCH  15  18
HETATM   18  C   LIG     1      15.300  56.015  12.020  1.00  0.00     0.273 C 
BRANCH  18  19
HETATM   19  N   LIG     1      14.622  57.214  12.596  1.00  0.00    -0.064 N 
HETATM   20  C   LIG     1      15.588  58.368  12.708  1.00  0.00     0.263 C 
HETATM   21  C   LIG     1      14.906  59.621  13.325  1.00  0.00     0.262 C 
HETATM   22  N   LIG     1      13.684  60.027  12.514  1.00  0.00    -0.072 N 
HETATM   23  C   LIG     1      12.687  58.873  12.406  1.00  0.00     0.262 C 
HETATM   24  C   LIG     1      13.004  61.215  13.052  1.00  0.00     0.269 C 
HETATM   25  H   LIG     1      14.034  60.268  11.586  1.00  0.00     0.279 HD
HETATM   26  C   LIG     1      13.397  57.631  11.776  1.00  0.00     0.263 C 
HETATM   27  H   LIG     1      14.297  56.956  13.528  1.00  0.00     0.280 HD
ENDBRANCH  18  19
ENDBRANCH  15  18
ENDBRANCH   9  12
ENDBRANCH   5   8
BRANCH   1  28
HETATM   28  N   LIG     1      16.653  47.053  18.757  1.00  0.00    -0.188 N 
HETATM   29  H   LIG     1      16.668  46.197  18.270  1.00  0.00     0.184 HD
BRANCH  28  30
HETATM   30  C   LIG     1      17.677  47.358  19.641  1.00  0.00     0.727 A 
HETATM   31  N   LIG     1      18.839  47.814  19.131  1.00  0.00    -0.062 NA
HETATM   32  C   LIG     1      19.911  48.130  19.936  1.00  0.00     0.089 A 
HETATM   33  C   LIG     1      19.800  47.979  21.359  1.00  0.00     0.053 A 
HETATM   34  C   LIG     1      18.572  47.500  21.867  1.00  0.00     0.139 A 
HETATM   35  N   LIG     1      17.538  47.199  21.007  1.00  0.00    -0.075 NA
BRANCH  32  36
HETATM   36  C   LIG     1      21.146  48.622  19.248  1.00  0.00     0.011 A 
HETATM   37  C   LIG     1      22.212  47.733  18.802  1.00  0.00     0.017 A 
HETATM   38  C   LIG     1      23.384  48.258  18.142  1.00  0.00     0.020 A 
HETATM   39  C   LIG     1      23.472  49.680  17.938  1.00  0.00     0.116 A 
HETATM   40  N   LIG     1      22.439  50.526  18.369  1.00  0.00    -0.272 NA
HETATM   41  C   LIG     1      21.298  50.048  19.007  1.00  0.00     0.130 A 
ENDBRANCH  32  36
ENDBRANCH  28  30
ENDBRANCH   1  28
TORSDOF 7
ENDMDL
