MODEL 1
REMARK VINA RESULT:   -12.925      0.000      0.000
REMARK INTER + INTRA:         -19.179
REMARK INTER:                 -18.719
REMARK INTRA:                  -0.460
REMARK UNBOUND:                -0.964
REMARK  7 active torsions:
REMARK  status: ('A' for Active; 'I' for Inactive)
REMARK    1  A    between atoms: C_1  and  N_2 
REMARK    2  A    between atoms: N_2  and  C_16 
REMARK    3  A    between atoms: C_10  and  N_11 
REMARK       I    between atoms: N_11  and  C_25 
REMARK    4  A    between atoms: N_13  and  C_32 
REMARK    5  A    between atoms: C_17  and  C_20 
REMARK    6  A    between atoms: C_25  and  C_26 
REMARK    7  A    between atoms: C_31  and  C_32 
ROOT
HETATM    1  C   LIG     1      15.853  54.736  12.312  1.00  0.00     0.057 A 
HETATM    2  C   LIG     1      16.962  54.607  11.360  1.00  0.00    -0.035 A 
HETATM    3  C   LIG     1      17.931  53.572  11.585  1.00  0.00     0.011 A 
HETATM    4  C   LIG     1      17.811  52.685  12.715  1.00  0.00     0.030 A 
HETATM    5  C   LIG     1      16.733  52.806  13.639  1.00  0.00     0.037 A 
HETATM    6  C   LIG     1      15.749  53.854  13.418  1.00  0.00     0.060 A 
HETATM    7  C   LIG     1      17.137  55.525  10.128  1.00  0.00     0.050 C 
ENDROOT
BRANCH   5   8
HETATM    8  N   LIG     1      16.675  51.876  14.740  1.00  0.00    -0.323 N 
HETATM    9  C   LIG     1      15.716  51.794  15.736  1.00  0.00     0.256 C 
HETATM   10  O   LIG     1      14.870  52.649  15.954  1.00  0.00    -0.267 OA
HETATM   11  H   LIG     1      17.407  51.220  14.790  1.00  0.00     0.169 HD
BRANCH   9  12
HETATM   12  C   LIG     1      15.702  50.595  16.628  1.00  0.00     0.032 A 
HETATM   13  C   LIG     1      14.516  50.246  17.415  1.00  0.00     0.017 A 
HETATM   14  C   LIG     1      14.536  49.094  18.281  1.00  0.00     0.010 A 
HETATM   15  C   LIG     1      15.746  48.281  18.363  1.00  0.00    -0.033 A 
HETATM   16  C   LIG     1      16.907  48.646  17.568  1.00  0.00     0.010 A 
HETATM   17  C   LIG     1      16.892  49.775  16.719  1.00  0.00     0.017 A 
BRANCH  15  18
HETATM   18  C   LIG     1      15.864  47.046  19.277  1.00  0.00     0.273 C 
BRANCH  18  19
HETATM   19  N   LIG     1      17.131  46.887  20.051  1.00  0.00    -0.064 N 
HETATM   20  C   LIG     1      17.269  47.988  21.073  1.00  0.00     0.263 C 
HETATM   21  C   LIG     1      18.593  47.853  21.877  1.00  0.00     0.262 C 
HETATM   22  N   LIG     1      18.681  46.490  22.549  1.00  0.00    -0.072 N 
HETATM   23  C   LIG     1      18.559  45.362  21.523  1.00  0.00     0.262 C 
HETATM   24  C   LIG     1      19.913  46.311  23.331  1.00  0.00     0.269 C 
HETATM   25  H   LIG     1      17.896  46.449  23.200  1.00  0.00     0.279 HD
HETATM   26  C   LIG     1      17.217  45.520  20.736  1.00  0.00     0.263 C 
HETATM   27  H   LIG     1      17.900  46.949  19.385  1.00  0.00     0.280 HD
ENDBRANCH  18  19
ENDBRANCH  15  18
ENDBRANCH   9  12
ENDBRANCH   5   8
BRANCH   1  28
HETATM   28  N   LIG     1      14.880  55.725  12.148  1.00  0.00    -0.188 N 
HETATM   29  H   LIG     1      14.013  55.493  11.742  1.00  0.00     0.184 HD
BRANCH  28  30
HETATM   30  C   LIG     1      15.121  57.029  12.550  1.00  0.00     0.727 A 
HETATM   31  N   LIG     1      14.136  57.936  12.385  1.00  0.00    -0.062 NA
HETATM   32  C   LIG     1      14.296  59.255  12.748  1.00  0.00     0.089 A 
HETATM   33  C   LIG     1      15.537  59.690  13.322  1.00  0.00     0.053 A 
HETATM   34  C   LIG     1      16.551  58.720  13.485  1.00  0.00     0.139 A 
HETATM   35  N   LIG     1      16.330  57.416  13.099  1.00  0.00    -0.075 NA
BRANCH  32  36
HETATM   36  C   LIG     1      13.129  60.163  12.508  1.00  0.00     0.011 A 
HETATM   37  C   LIG     1      13.096  61.547  12.963  1.00  0.00     0.017 A 
HETATM   38  C   LIG     1      11.945  62.382  12.705  1.00  0.00     0.020 A 
HETATM   39  C   LIG     1      10.834  61.810  11.992  1.00  0.00     0.116 A 
HETATM   40  N   LIG     1      10.878  60.476  11.558  1.00  0.00    -0.272 NA
HETATM   41  C   LIG     1      11.973  59.650  11.790  1.00  0.00     0.130 A 
ENDBRANCH  32  36
ENDBRANCH  28  30
ENDBRANCH   1  28
TORSDOF 7
ENDMDL
MODEL 2
REMARK VINA RESULT:   -10.939      3.079     12.347
REMARK INTER + INTRA:         -16.380
REMARK INTER:                 -15.452
REMARK INTRA:                  -0.928
REMARK UNBOUND:                -0.964
REMARK  7 active torsions:
REMARK  status: ('A' for Active; 'I' for Inactive)
REMARK    1  A    between atoms: C_1  and  N_2 
REMARK    2  A    between atoms: N_2  and  C_16 
REMARK    3  A    between atoms: C_10  and  N_11 
REMARK       I    between atoms: N_11  and  C_25 
REMARK    4  A    between atoms: N_13  and  C_32 
REMARK    5  A    between atoms: C_17  and  C_20 
REMARK    6  A    between atoms: C_25  and  C_26 
REMARK    7  A    between atoms: C_31  and  C_32 
ROOT
HETATM    1  C   LIG     1      16.908  48.737  17.543  1.00  0.00     0.057 A 
HETATM    2  C   LIG     1      15.587  48.437  18.107  1.00  0.00    -0.035 A 
HETATM    3  C   LIG     1      14.518  49.361  17.858  1.00  0.00     0.011 A 
HETATM    4  C   LIG     1      14.741  50.549  17.071  1.00  0.00     0.030 A 
HETATM    5  C   LIG     1      16.022  50.840  16.518  1.00  0.00     0.037 A 
HETATM    6  C   LIG     1      17.110  49.909  16.770  1.00  0.00     0.060 A 
HETATM    7  C   LIG     1      15.288  47.177  18.953  1.00  0.00     0.050 C 
ENDROOT
BRANCH   5   8
HETATM    8  N   LIG     1      16.165  52.042  15.734  1.00  0.00    -0.323 N 
HETATM    9  C   LIG     1      15.684  52.290  14.459  1.00  0.00     0.256 C 
HETATM   10  O   LIG     1      15.238  51.433  13.710  1.00  0.00    -0.267 OA
HETATM   11  H   LIG     1      16.666  52.777  16.158  1.00  0.00     0.169 HD
BRANCH   9  12
HETATM   12  C   LIG     1      15.717  53.689  13.934  1.00  0.00     0.032 A 
HETATM   13  C   LIG     1      16.971  54.441  13.853  1.00  0.00     0.017 A 
HETATM   14  C   LIG     1      16.972  55.795  13.359  1.00  0.00     0.010 A 
HETATM   15  C   LIG     1      15.713  56.405  12.940  1.00  0.00    -0.033 A 
HETATM   16  C   LIG     1      14.483  55.635  13.026  1.00  0.00     0.010 A 
HETATM   17  C   LIG     1      14.479  54.308  13.511  1.00  0.00     0.017 A 
BRANCH  15  18
HETATM   18  C   LIG     1      15.617  57.852  12.419  1.00  0.00     0.273 C 
BRANCH  18  19
HETATM   19  N   LIG     1      14.339  58.584  12.668  1.00  0.00    -0.064 N 
HETATM   20  C   LIG     1      14.617  59.995  13.126  1.00  0.00     0.263 C 
HETATM   21  C   LIG     1      13.299  60.769  13.411  1.00  0.00     0.262 C 
HETATM   22  N   LIG     1      12.400  60.776  12.183  1.00  0.00    -0.072 N 
HETATM   23  C   LIG     1      12.095  59.352  11.715  1.00  0.00     0.262 C 
HETATM   24  C   LIG     1      11.140  61.503  12.395  1.00  0.00     0.269 C 
HETATM   25  H   LIG     1      12.922  61.271  11.459  1.00  0.00     0.279 HD
HETATM   26  C   LIG     1      13.437  58.601  11.431  1.00  0.00     0.263 C 
HETATM   27  H   LIG     1      13.844  58.083  13.405  1.00  0.00     0.280 HD
ENDBRANCH  18  19
ENDBRANCH  15  18
ENDBRANCH   9  12
ENDBRANCH   5   8
BRANCH   1  28
HETATM   28  N   LIG     1      17.988  47.877  17.753  1.00  0.00    -0.188 N 
HETATM   29  H   LIG     1      18.052  47.040  17.238  1.00  0.00     0.184 HD
BRANCH  28  30
HETATM   30  C   LIG     1      18.971  48.187  18.680  1.00  0.00     0.727 A 
HETATM   31  N   LIG     1      19.953  49.033  18.304  1.00  0.00    -0.062 NA
HETATM   32  C   LIG     1      20.974  49.386  19.158  1.00  0.00     0.089 A 
HETATM   33  C   LIG     1      21.004  48.851  20.489  1.00  0.00     0.053 A 
HETATM   34  C   LIG     1      19.964  47.970  20.858  1.00  0.00     0.139 A 
HETATM   35  N   LIG     1      18.972  47.653  19.955  1.00  0.00    -0.075 NA
BRANCH  32  36
HETATM   36  C   LIG     1      22.005  50.328  18.619  1.00  0.00     0.011 A 
HETATM   37  C   LIG     1      23.281  49.879  18.076  1.00  0.00     0.017 A 
HETATM   38  C   LIG     1      24.242  50.830  17.567  1.00  0.00     0.020 A 
HETATM   39  C   LIG     1      23.907  52.229  17.612  1.00  0.00     0.116 A 
HETATM   40  N   LIG     1      22.675  52.649  18.135  1.00  0.00    -0.272 NA
HETATM   41  C   LIG     1      21.729  51.757  18.631  1.00  0.00     0.130 A 
ENDBRANCH  32  36
ENDBRANCH  28  30
ENDBRANCH   1  28
TORSDOF 7
ENDMDL
MODEL 3
REMARK VINA RESULT:   -10.808      3.837     12.111
REMARK INTER + INTRA:         -16.195
REMARK INTER:                 -15.923
REMARK INTRA:                  -0.271
REMARK UNBOUND:                -0.964
REMARK  7 active torsions:
REMARK  status: ('A' for Active; 'I' for Inactive)
REMARK    1  A    between atoms: C_1  and  N_2 
REMARK    2  A    between atoms: N_2  and  C_16 
REMARK    3  A    between atoms: C_10  and  N_11 
REMARK       I    between atoms: N_11  and  C_25 
REMARK    4  A    between atoms: N_13  and  C_32 
REMARK    5  A    between atoms: C_17  and  C_20 
REMARK    6  A    between atoms: C_25  and  C_26 
REMARK    7  A    between atoms: C_31  and  C_32 
ROOT
HETATM    1  C   LIG     1      18.151  48.666  18.837  1.00  0.00     0.057 A 
HETATM    2  C   LIG     1      17.158  47.593  18.965  1.00  0.00    -0.035 A 
HETATM    3  C   LIG     1      16.041  47.592  18.064  1.00  0.00     0.011 A 
HETATM    4  C   LIG     1      15.905  48.618  17.061  1.00  0.00     0.030 A 
HETATM    5  C   LIG     1      16.869  49.660  16.931  1.00  0.00     0.037 A 
HETATM    6  C   LIG     1      18.002  49.667  17.844  1.00  0.00     0.060 A 
HETATM    7  C   LIG     1      17.256  46.463  20.017  1.00  0.00     0.050 C 
ENDROOT
BRANCH   5   8
HETATM    8  N   LIG     1      16.670  50.645  15.898  1.00  0.00    -0.323 N 
HETATM    9  C   LIG     1      15.699  51.632  15.838  1.00  0.00     0.256 C 
HETATM   10  O   LIG     1      14.718  51.682  16.566  1.00  0.00    -0.267 OA
HETATM   11  H   LIG     1      17.300  50.612  15.142  1.00  0.00     0.169 HD
BRANCH   9  12
HETATM   12  C   LIG     1      15.830  52.712  14.813  1.00  0.00     0.032 A 
HETATM   13  C   LIG     1      14.791  53.732  14.648  1.00  0.00     0.017 A 
HETATM   14  C   LIG     1      14.934  54.753  13.640  1.00  0.00     0.010 A 
HETATM   15  C   LIG     1      16.123  54.759  12.790  1.00  0.00    -0.033 A 
HETATM   16  C   LIG     1      17.140  53.738  12.980  1.00  0.00     0.010 A 
HETATM   17  C   LIG     1      17.003  52.736  13.966  1.00  0.00     0.017 A 
BRANCH  15  18
HETATM   18  C   LIG     1      16.348  55.797  11.675  1.00  0.00     0.273 C 
BRANCH  18  19
HETATM   19  N   LIG     1      15.718  57.139  11.853  1.00  0.00    -0.064 N 
HETATM   20  C   LIG     1      14.221  57.007  11.996  1.00  0.00     0.263 C 
HETATM   21  C   LIG     1      13.543  58.396  12.161  1.00  0.00     0.262 C 
HETATM   22  N   LIG     1      14.126  59.146  13.350  1.00  0.00    -0.072 N 
HETATM   23  C   LIG     1      15.642  59.302  13.212  1.00  0.00     0.262 C 
HETATM   24  C   LIG     1      13.513  60.466  13.556  1.00  0.00     0.269 C 
HETATM   25  H   LIG     1      13.913  58.576  14.169  1.00  0.00     0.279 HD
HETATM   26  C   LIG     1      16.297  57.892  13.054  1.00  0.00     0.263 C 
HETATM   27  H   LIG     1      15.928  57.683  11.016  1.00  0.00     0.280 HD
ENDBRANCH  18  19
ENDBRANCH  15  18
ENDBRANCH   9  12
ENDBRANCH   5   8
BRANCH   1  28
HETATM   28  N   LIG     1      19.258  48.722  19.687  1.00  0.00    -0.188 N 
HETATM   29  H   LIG     1      19.133  48.966  20.633  1.00  0.00     0.184 HD
BRANCH  28  30
HETATM   30  C   LIG     1      20.529  48.438  19.214  1.00  0.00     0.727 A 
HETATM   31  N   LIG     1      21.343  49.474  18.920  1.00  0.00    -0.062 NA
HETATM   32  C   LIG     1      22.617  49.281  18.434  1.00  0.00     0.089 A 
HETATM   33  C   LIG     1      23.108  47.948  18.235  1.00  0.00     0.053 A 
HETATM   34  C   LIG     1      22.237  46.881  18.552  1.00  0.00     0.139 A 
HETATM   35  N   LIG     1      20.971  47.141  19.032  1.00  0.00    -0.075 NA
BRANCH  32  36
HETATM   36  C   LIG     1      23.417  50.512  18.142  1.00  0.00     0.011 A 
HETATM   37  C   LIG     1      24.341  50.609  17.019  1.00  0.00     0.017 A 
HETATM   38  C   LIG     1      25.089  51.821  16.781  1.00  0.00     0.020 A 
HETATM   39  C   LIG     1      24.900  52.928  17.681  1.00  0.00     0.116 A 
HETATM   40  N   LIG     1      24.007  52.824  18.758  1.00  0.00    -0.272 NA
HETATM   41  C   LIG     1      23.272  51.670  19.012  1.00  0.00     0.130 A 
ENDBRANCH  32  36
ENDBRANCH  28  30
ENDBRANCH   1  28
TORSDOF 7
ENDMDL
MODEL 4
REMARK VINA RESULT:   -10.227      2.598     12.522
REMARK INTER + INTRA:         -15.376
REMARK INTER:                 -14.589
REMARK INTRA:                  -0.786
REMARK UNBOUND:                -0.964
REMARK  7 active torsions:
REMARK  status: ('A' for Active; 'I' for Inactive)
REMARK    1  A    between atoms: C_1  and  N_2 
REMARK    2  A    between atoms: N_2  and  C_16 
REMARK    3  A    between atoms: C_10  and  N_11 
REMARK       I    between atoms: N_11  and  C_25 
REMARK    4  A    between atoms: N_13  and  C_32 
REMARK    5  A    between atoms: C_17  and  C_20 
REMARK    6  A    between atoms: C_25  and  C_26 
REMARK    7  A    between atoms: C_31  and  C_32 
ROOT
HETATM    1  C   LIG     1      15.599  47.946  18.550  1.00  0.00     0.057 A 
HETATM    2  C   LIG     1      14.292  47.727  19.180  1.00  0.00    -0.035 A 
HETATM    3  C   LIG     1      13.250  48.682  18.930  1.00  0.00     0.011 A 
HETATM    4  C   LIG     1      13.487  49.823  18.081  1.00  0.00     0.030 A 
HETATM    5  C   LIG     1      14.754  50.037  17.465  1.00  0.00     0.037 A 
HETATM    6  C   LIG     1      15.815  49.074  17.717  1.00  0.00     0.060 A 
HETATM    7  C   LIG     1      13.980  46.519  20.093  1.00  0.00     0.050 C 
ENDROOT
BRANCH   5   8
HETATM    8  N   LIG     1      14.912  51.196  16.622  1.00  0.00    -0.323 N 
HETATM    9  C   LIG     1      15.997  51.531  15.829  1.00  0.00     0.256 C 
HETATM   10  O   LIG     1      17.091  50.989  15.889  1.00  0.00    -0.267 OA
HETATM   11  H   LIG     1      14.156  51.827  16.609  1.00  0.00     0.169 HD
BRANCH   9  12
HETATM   12  C   LIG     1      15.851  52.637  14.834  1.00  0.00     0.032 A 
HETATM   13  C   LIG     1      16.822  52.820  13.753  1.00  0.00     0.017 A 
HETATM   14  C   LIG     1      16.666  53.906  12.817  1.00  0.00     0.010 A 
HETATM   15  C   LIG     1      15.533  54.817  12.959  1.00  0.00    -0.033 A 
HETATM   16  C   LIG     1      14.582  54.609  14.038  1.00  0.00     0.010 A 
HETATM   17  C   LIG     1      14.731  53.547  14.958  1.00  0.00     0.017 A 
BRANCH  15  18
HETATM   18  C   LIG     1      15.300  56.015  12.020  1.00  0.00     0.273 C 
BRANCH  18  19
HETATM   19  N   LIG     1      14.622  57.214  12.596  1.00  0.00    -0.064 N 
HETATM   20  C   LIG     1      15.588  58.368  12.708  1.00  0.00     0.263 C 
HETATM   21  C   LIG     1      14.906  59.621  13.325  1.00  0.00     0.262 C 
HETATM   22  N   LIG     1      13.684  60.027  12.514  1.00  0.00    -0.072 N 
HETATM   23  C   LIG     1      12.687  58.873  12.406  1.00  0.00     0.262 C 
HETATM   24  C   LIG     1      13.004  61.215  13.052  1.00  0.00     0.269 C 
HETATM   25  H   LIG     1      14.034  60.268  11.586  1.00  0.00     0.279 HD
HETATM   26  C   LIG     1      13.397  57.631  11.776  1.00  0.00     0.263 C 
HETATM   27  H   LIG     1      14.297  56.956  13.528  1.00  0.00     0.280 HD
ENDBRANCH  18  19
ENDBRANCH  15  18
ENDBRANCH   9  12
ENDBRANCH   5   8
BRANCH   1  28
HETATM   28  N   LIG     1      16.653  47.053  18.757  1.00  0.00    -0.188 N 
HETATM   29  H   LIG     1      16.668  46.197  18.270  1.00  0.00     0.184 HD
BRANCH  28  30
HETATM   30  C   LIG     1      17.677  47.358  19.641  1.00  0.00     0.727 A 
HETATM   31  N   LIG     1      18.839  47.814  19.131  1.00  0.00    -0.062 NA
HETATM   32  C   LIG     1      19.911  48.130  19.936  1.00  0.00     0.089 A 
HETATM   33  C   LIG     1      19.800  47.979  21.359  1.00  0.00     0.053 A 
HETATM   34  C   LIG     1      18.572  47.500  21.867  1.00  0.00     0.139 A 
HETATM   35  N   LIG     1      17.538  47.199  21.007  1.00  0.00    -0.075 NA
BRANCH  32  36
HETATM   36  C   LIG     1      21.146  48.622  19.248  1.00  0.00     0.011 A 
HETATM   37  C   LIG     1      22.212  47.733  18.802  1.00  0.00     0.017 A 
HETATM   38  C   LIG     1      23.384  48.258  18.142  1.00  0.00     0.020 A 
HETATM   39  C   LIG     1      23.472  49.680  17.938  1.00  0.00     0.116 A 
HETATM   40  N   LIG     1      22.439  50.526  18.369  1.00  0.00    -0.272 NA
HETATM   41  C   LIG     1      21.298  50.048  19.007  1.00  0.00     0.130 A 
ENDBRANCH  32  36
ENDBRANCH  28  30
ENDBRANCH   1  28
TORSDOF 7
ENDMDL
MODEL 5
REMARK VINA RESULT:   -10.070      1.649     13.494
REMARK INTER + INTRA:         -15.154
REMARK INTER:                 -14.186
REMARK INTRA:                  -0.968
REMARK UNBOUND:                -0.964
REMARK  7 active torsions:
REMARK  status: ('A' for Active; 'I' for Inactive)
REMARK    1  A    between atoms: C_1  and  N_2 
REMARK    2  A    between atoms: N_2  and  C_16 
REMARK    3  A    between atoms: C_10  and  N_11 
REMARK       I    between atoms: N_11  and  C_25 
REMARK    4  A    between atoms: N_13  and  C_32 
REMARK    5  A    between atoms: C_17  and  C_20 
REMARK    6  A    between atoms: C_25  and  C_26 
REMARK    7  A    between atoms: C_31  and  C_32 
ROOT
HETATM    1  C   LIG     1      17.012  48.586  17.482  1.00  0.00     0.057 A 
HETATM    2  C   LIG     1      15.736  48.252  18.125  1.00  0.00    -0.035 A 
HETATM    3  C   LIG     1      14.637  49.161  17.964  1.00  0.00     0.011 A 
HETATM    4  C   LIG     1      14.788  50.366  17.188  1.00  0.00     0.030 A 
HETATM    5  C   LIG     1      16.025  50.692  16.559  1.00  0.00     0.037 A 
HETATM    6  C   LIG     1      17.143  49.776  16.721  1.00  0.00     0.060 A 
HETATM    7  C   LIG     1      15.516  46.971  18.963  1.00  0.00     0.050 C 
ENDROOT
BRANCH   5   8
HETATM    8  N   LIG     1      16.096  51.911  15.792  1.00  0.00    -0.323 N 
HETATM    9  C   LIG     1      15.635  52.135  14.505  1.00  0.00     0.256 C 
HETATM   10  O   LIG     1      15.280  51.255  13.734  1.00  0.00    -0.267 OA
HETATM   11  H   LIG     1      16.524  52.677  16.237  1.00  0.00     0.169 HD
BRANCH   9  12
HETATM   12  C   LIG     1      15.572  53.538  13.994  1.00  0.00     0.032 A 
HETATM   13  C   LIG     1      14.317  54.114  13.505  1.00  0.00     0.017 A 
HETATM   14  C   LIG     1      14.287  55.464  13.002  1.00  0.00     0.010 A 
HETATM   15  C   LIG     1      15.519  56.250  12.987  1.00  0.00    -0.033 A 
HETATM   16  C   LIG     1      16.750  55.656  13.483  1.00  0.00     0.010 A 
HETATM   17  C   LIG     1      16.782  54.332  13.976  1.00  0.00     0.017 A 
BRANCH  15  18
HETATM   18  C   LIG     1      15.586  57.691  12.449  1.00  0.00     0.273 C 
BRANCH  18  19
HETATM   19  N   LIG     1      14.387  58.556  12.662  1.00  0.00    -0.064 N 
HETATM   20  C   LIG     1      14.801  59.937  13.109  1.00  0.00     0.263 C 
HETATM   21  C   LIG     1      13.567  60.847  13.356  1.00  0.00     0.262 C 
HETATM   22  N   LIG     1      12.697  60.931  12.109  1.00  0.00    -0.072 N 
HETATM   23  C   LIG     1      12.255  59.540  11.653  1.00  0.00     0.262 C 
HETATM   24  C   LIG     1      11.516  61.788  12.286  1.00  0.00     0.269 C 
HETATM   25  H   LIG     1      13.282  61.358  11.390  1.00  0.00     0.279 HD
HETATM   26  C   LIG     1      13.516  58.649  11.406  1.00  0.00     0.263 C 
HETATM   27  H   LIG     1      13.828  58.120  13.395  1.00  0.00     0.280 HD
ENDBRANCH  18  19
ENDBRANCH  15  18
ENDBRANCH   9  12
ENDBRANCH   5   8
BRANCH   1  28
HETATM   28  N   LIG     1      18.119  47.743  17.605  1.00  0.00    -0.188 N 
HETATM   29  H   LIG     1      18.264  47.031  16.940  1.00  0.00     0.184 HD
BRANCH  28  30
HETATM   30  C   LIG     1      19.014  47.897  18.652  1.00  0.00     0.727 A 
HETATM   31  N   LIG     1      18.950  47.020  19.676  1.00  0.00    -0.062 NA
HETATM   32  C   LIG     1      19.794  47.107  20.760  1.00  0.00     0.089 A 
HETATM   33  C   LIG     1      20.777  48.150  20.814  1.00  0.00     0.053 A 
HETATM   34  C   LIG     1      20.824  49.054  19.729  1.00  0.00     0.139 A 
HETATM   35  N   LIG     1      19.949  48.915  18.674  1.00  0.00    -0.075 NA
BRANCH  32  36
HETATM   36  C   LIG     1      19.618  46.077  21.832  1.00  0.00     0.011 A 
HETATM   37  C   LIG     1      19.117  44.734  21.566  1.00  0.00     0.017 A 
HETATM   38  C   LIG     1      18.966  43.776  22.637  1.00  0.00     0.020 A 
HETATM   39  C   LIG     1      19.320  44.184  23.971  1.00  0.00     0.116 A 
HETATM   40  N   LIG     1      19.803  45.478  24.215  1.00  0.00    -0.272 NA
HETATM   41  C   LIG     1      19.960  46.421  23.204  1.00  0.00     0.130 A 
ENDBRANCH  32  36
ENDBRANCH  28  30
ENDBRANCH   1  28
TORSDOF 7
ENDMDL
