REMARK VINA RESULT:   -12.925      0.000      0.000
REMARK INTER + INTRA:         -19.179
REMARK INTER:                 -18.719
REMARK INTRA:                  -0.460
REMARK UNBOUND:                -0.964
REMARK  7 active torsions:
REMARK  status: ('A' for Active; 'I' for Inactive)
REMARK    1  A    between atoms: C_1  and  N_2 
REMARK    2  A    between atoms: N_2  and  C_16 
REMARK    3  A    between atoms: C_10  and  N_11 
REMARK       I    between atoms: N_11  and  C_25 
REMARK    4  A    between atoms: N_13  and  C_32 
REMARK    5  A    between atoms: C_17  and  C_20 
REMARK    6  A    between atoms: C_25  and  C_26 
REMARK    7  A    between atoms: C_31  and  C_32 
ROOT
HETATM    1  C   LIG     1      15.853  54.736  12.312  1.00  0.00     0.057 A 
HETATM    2  C   LIG     1      16.962  54.607  11.360  1.00  0.00    -0.035 A 
HETATM    3  C   LIG     1      17.931  53.572  11.585  1.00  0.00     0.011 A 
HETATM    4  C   LIG     1      17.811  52.685  12.715  1.00  0.00     0.030 A 
HETATM    5  C   LIG     1      16.733  52.806  13.639  1.00  0.00     0.037 A 
HETATM    6  C   LIG     1      15.749  53.854  13.418  1.00  0.00     0.060 A 
HETATM    7  C   LIG     1      17.137  55.525  10.128  1.00  0.00     0.050 C 
ENDROOT
BRANCH   5   8
HETATM    8  N   LIG     1      16.675  51.876  14.740  1.00  0.00    -0.323 N 
HETATM    9  C   LIG     1      15.716  51.794  15.736  1.00  0.00     0.256 C 
HETATM   10  O   LIG     1      14.870  52.649  15.954  1.00  0.00    -0.267 OA
HETATM   11  H   LIG     1      17.407  51.220  14.790  1.00  0.00     0.169 HD
BRANCH   9  12
HETATM   12  C   LIG     1      15.702  50.595  16.628  1.00  0.00     0.032 A 
HETATM   13  C   LIG     1      14.516  50.246  17.415  1.00  0.00     0.017 A 
HETATM   14  C   LIG     1      14.536  49.094  18.281  1.00  0.00     0.010 A 
HETATM   15  C   LIG     1      15.746  48.281  18.363  1.00  0.00    -0.033 A 
HETATM   16  C   LIG     1      16.907  48.646  17.568  1.00  0.00     0.010 A 
HETATM   17  C   LIG     1      16.892  49.775  16.719  1.00  0.00     0.017 A 
BRANCH  15  18
HETATM   18  C   LIG     1      15.864  47.046  19.277  1.00  0.00     0.273 C 
BRANCH  18  19
HETATM   19  N   LIG     1      17.131  46.887  20.051  1.00  0.00    -0.064 N 
HETATM   20  C   LIG     1      17.269  47.988  21.073  1.00  0.00     0.263 C 
HETATM   21  C   LIG     1      18.593  47.853  21.877  1.00  0.00     0.262 C 
HETATM   22  N   LIG     1      18.681  46.490  22.549  1.00  0.00    -0.072 N 
HETATM   23  C   LIG     1      18.559  45.362  21.523  1.00  0.00     0.262 C 
HETATM   24  C   LIG     1      19.913  46.311  23.331  1.00  0.00     0.269 C 
HETATM   25  H   LIG     1      17.896  46.449  23.200  1.00  0.00     0.279 HD
HETATM   26  C   LIG     1      17.217  45.520  20.736  1.00  0.00     0.263 C 
HETATM   27  H   LIG     1      17.900  46.949  19.385  1.00  0.00     0.280 HD
ENDBRANCH  18  19
ENDBRANCH  15  18
ENDBRANCH   9  12
ENDBRANCH   5   8
BRANCH   1  28
HETATM   28  N   LIG     1      14.880  55.725  12.148  1.00  0.00    -0.188 N 
HETATM   29  H   LIG     1      14.013  55.493  11.742  1.00  0.00     0.184 HD
BRANCH  28  30
HETATM   30  C   LIG     1      15.121  57.029  12.550  1.00  0.00     0.727 A 
HETATM   31  N   LIG     1      14.136  57.936  12.385  1.00  0.00    -0.062 NA
HETATM   32  C   LIG     1      14.296  59.255  12.748  1.00  0.00     0.089 A 
HETATM   33  C   LIG     1      15.537  59.690  13.322  1.00  0.00     0.053 A 
HETATM   34  C   LIG     1      16.551  58.720  13.485  1.00  0.00     0.139 A 
HETATM   35  N   LIG     1      16.330  57.416  13.099  1.00  0.00    -0.075 NA
BRANCH  32  36
HETATM   36  C   LIG     1      13.129  60.163  12.508  1.00  0.00     0.011 A 
HETATM   37  C   LIG     1      13.096  61.547  12.963  1.00  0.00     0.017 A 
HETATM   38  C   LIG     1      11.945  62.382  12.705  1.00  0.00     0.020 A 
HETATM   39  C   LIG     1      10.834  61.810  11.992  1.00  0.00     0.116 A 
HETATM   40  N   LIG     1      10.878  60.476  11.558  1.00  0.00    -0.272 NA
HETATM   41  C   LIG     1      11.973  59.650  11.790  1.00  0.00     0.130 A 
ENDBRANCH  32  36
ENDBRANCH  28  30
ENDBRANCH   1  28
TORSDOF 7
ENDMDL
