REMARK VINA RESULT:   -10.070      1.649     13.494
REMARK INTER + INTRA:         -15.154
REMARK INTER:                 -14.186
REMARK INTRA:                  -0.968
REMARK UNBOUND:                -0.964
REMARK  7 active torsions:
REMARK  status: ('A' for Active; 'I' for Inactive)
REMARK    1  A    between atoms: C_1  and  N_2 
REMARK    2  A    between atoms: N_2  and  C_16 
REMARK    3  A    between atoms: C_10  and  N_11 
REMARK       I    between atoms: N_11  and  C_25 
REMARK    4  A    between atoms: N_13  and  C_32 
REMARK    5  A    between atoms: C_17  and  C_20 
REMARK    6  A    between atoms: C_25  and  C_26 
REMARK    7  A    between atoms: C_31  and  C_32 
ROOT
HETATM    1  C   LIG     1      17.012  48.586  17.482  1.00  0.00     0.057 A 
HETATM    2  C   LIG     1      15.736  48.252  18.125  1.00  0.00    -0.035 A 
HETATM    3  C   LIG     1      14.637  49.161  17.964  1.00  0.00     0.011 A 
HETATM    4  C   LIG     1      14.788  50.366  17.188  1.00  0.00     0.030 A 
HETATM    5  C   LIG     1      16.025  50.692  16.559  1.00  0.00     0.037 A 
HETATM    6  C   LIG     1      17.143  49.776  16.721  1.00  0.00     0.060 A 
HETATM    7  C   LIG     1      15.516  46.971  18.963  1.00  0.00     0.050 C 
ENDROOT
BRANCH   5   8
HETATM    8  N   LIG     1      16.096  51.911  15.792  1.00  0.00    -0.323 N 
HETATM    9  C   LIG     1      15.635  52.135  14.505  1.00  0.00     0.256 C 
HETATM   10  O   LIG     1      15.280  51.255  13.734  1.00  0.00    -0.267 OA
HETATM   11  H   LIG     1      16.524  52.677  16.237  1.00  0.00     0.169 HD
BRANCH   9  12
HETATM   12  C   LIG     1      15.572  53.538  13.994  1.00  0.00     0.032 A 
HETATM   13  C   LIG     1      14.317  54.114  13.505  1.00  0.00     0.017 A 
HETATM   14  C   LIG     1      14.287  55.464  13.002  1.00  0.00     0.010 A 
HETATM   15  C   LIG     1      15.519  56.250  12.987  1.00  0.00    -0.033 A 
HETATM   16  C   LIG     1      16.750  55.656  13.483  1.00  0.00     0.010 A 
HETATM   17  C   LIG     1      16.782  54.332  13.976  1.00  0.00     0.017 A 
BRANCH  15  18
HETATM   18  C   LIG     1      15.586  57.691  12.449  1.00  0.00     0.273 C 
BRANCH  18  19
HETATM   19  N   LIG     1      14.387  58.556  12.662  1.00  0.00    -0.064 N 
HETATM   20  C   LIG     1      14.801  59.937  13.109  1.00  0.00     0.263 C 
HETATM   21  C   LIG     1      13.567  60.847  13.356  1.00  0.00     0.262 C 
HETATM   22  N   LIG     1      12.697  60.931  12.109  1.00  0.00    -0.072 N 
HETATM   23  C   LIG     1      12.255  59.540  11.653  1.00  0.00     0.262 C 
HETATM   24  C   LIG     1      11.516  61.788  12.286  1.00  0.00     0.269 C 
HETATM   25  H   LIG     1      13.282  61.358  11.390  1.00  0.00     0.279 HD
HETATM   26  C   LIG     1      13.516  58.649  11.406  1.00  0.00     0.263 C 
HETATM   27  H   LIG     1      13.828  58.120  13.395  1.00  0.00     0.280 HD
ENDBRANCH  18  19
ENDBRANCH  15  18
ENDBRANCH   9  12
ENDBRANCH   5   8
BRANCH   1  28
HETATM   28  N   LIG     1      18.119  47.743  17.605  1.00  0.00    -0.188 N 
HETATM   29  H   LIG     1      18.264  47.031  16.940  1.00  0.00     0.184 HD
BRANCH  28  30
HETATM   30  C   LIG     1      19.014  47.897  18.652  1.00  0.00     0.727 A 
HETATM   31  N   LIG     1      18.950  47.020  19.676  1.00  0.00    -0.062 NA
HETATM   32  C   LIG     1      19.794  47.107  20.760  1.00  0.00     0.089 A 
HETATM   33  C   LIG     1      20.777  48.150  20.814  1.00  0.00     0.053 A 
HETATM   34  C   LIG     1      20.824  49.054  19.729  1.00  0.00     0.139 A 
HETATM   35  N   LIG     1      19.949  48.915  18.674  1.00  0.00    -0.075 NA
BRANCH  32  36
HETATM   36  C   LIG     1      19.618  46.077  21.832  1.00  0.00     0.011 A 
HETATM   37  C   LIG     1      19.117  44.734  21.566  1.00  0.00     0.017 A 
HETATM   38  C   LIG     1      18.966  43.776  22.637  1.00  0.00     0.020 A 
HETATM   39  C   LIG     1      19.320  44.184  23.971  1.00  0.00     0.116 A 
HETATM   40  N   LIG     1      19.803  45.478  24.215  1.00  0.00    -0.272 NA
HETATM   41  C   LIG     1      19.960  46.421  23.204  1.00  0.00     0.130 A 
ENDBRANCH  32  36
ENDBRANCH  28  30
ENDBRANCH   1  28
TORSDOF 7
ENDMDL
