REMARK VINA RESULT:    -6.915      3.036     12.409
REMARK INTER + INTRA:         -10.726
REMARK INTER:                  -9.838
REMARK INTRA:                  -0.889
REMARK UNBOUND:                -0.982
REMARK  7 active torsions:
REMARK  status: ('A' for Active; 'I' for Inactive)
REMARK    1  A    between atoms: C_1  and  N_2 
REMARK    2  A    between atoms: N_2  and  C_16 
REMARK    3  A    between atoms: C_10  and  N_11 
REMARK       I    between atoms: N_11  and  C_25 
REMARK    4  A    between atoms: N_13  and  C_32 
REMARK    5  A    between atoms: C_17  and  C_20 
REMARK    6  A    between atoms: C_25  and  C_26 
REMARK    7  A    between atoms: C_31  and  C_32 
ROOT
HETATM    1  C   LIG     1      16.945  48.690  17.677  1.00  0.00     0.057 A 
HETATM    2  C   LIG     1      15.615  48.383  18.216  1.00  0.00    -0.035 A 
HETATM    3  C   LIG     1      14.542  49.293  17.933  1.00  0.00     0.011 A 
HETATM    4  C   LIG     1      14.770  50.474  17.137  1.00  0.00     0.030 A 
HETATM    5  C   LIG     1      16.060  50.773  16.609  1.00  0.00     0.037 A 
HETATM    6  C   LIG     1      17.152  49.856  16.896  1.00  0.00     0.060 A 
HETATM    7  C   LIG     1      15.312  47.129  19.069  1.00  0.00     0.050 C 
ENDROOT
BRANCH   5   8
HETATM    8  N   LIG     1      16.208  51.968  15.815  1.00  0.00    -0.323 N 
HETATM    9  C   LIG     1      15.742  52.200  14.532  1.00  0.00     0.256 C 
HETATM   10  O   LIG     1      15.310  51.334  13.786  1.00  0.00    -0.267 OA
HETATM   11  H   LIG     1      16.700  52.709  16.238  1.00  0.00     0.169 HD
BRANCH   9  12
HETATM   12  C   LIG     1      15.775  53.594  13.993  1.00  0.00     0.032 A 
HETATM   13  C   LIG     1      17.031  54.341  13.896  1.00  0.00     0.017 A 
HETATM   14  C   LIG     1      17.032  55.691  13.388  1.00  0.00     0.010 A 
HETATM   15  C   LIG     1      15.772  56.300  12.972  1.00  0.00    -0.033 A 
HETATM   16  C   LIG     1      14.541  55.534  13.074  1.00  0.00     0.010 A 
HETATM   17  C   LIG     1      14.536  54.212  13.572  1.00  0.00     0.017 A 
BRANCH  15  18
HETATM   18  C   LIG     1      15.676  57.742  12.438  1.00  0.00     0.273 C 
BRANCH  18  19
HETATM   19  N   LIG     1      14.378  58.456  12.626  1.00  0.00    -0.064 N 
HETATM   20  C   LIG     1      14.613  59.868  13.102  1.00  0.00     0.263 C 
HETATM   21  C   LIG     1      13.273  60.623  13.324  1.00  0.00     0.262 C 
HETATM   22  N   LIG     1      12.434  60.622  12.054  1.00  0.00    -0.072 N 
HETATM   23  C   LIG     1      12.172  59.196  11.568  1.00  0.00     0.262 C 
HETATM   24  C   LIG     1      11.155  61.331  12.207  1.00  0.00     0.269 C 
HETATM   25  H   LIG     1      12.984  61.127  11.358  1.00  0.00     0.279 HD
HETATM   26  C   LIG     1      13.536  58.464  11.347  1.00  0.00     0.263 C 
HETATM   27  H   LIG     1      13.855  57.945  13.338  1.00  0.00     0.280 HD
ENDBRANCH  18  19
ENDBRANCH  15  18
ENDBRANCH   9  12
ENDBRANCH   5   8
BRANCH   1  28
HETATM   28  N   LIG     1      18.030  47.844  17.921  1.00  0.00    -0.188 N 
HETATM   29  H   LIG     1      18.104  46.994  17.430  1.00  0.00     0.184 HD
BRANCH  28  30
HETATM   30  C   LIG     1      19.002  48.188  18.847  1.00  0.00     0.727 A 
HETATM   31  N   LIG     1      19.964  49.054  18.464  1.00  0.00    -0.062 NA
HETATM   32  C   LIG     1      20.974  49.440  19.317  1.00  0.00     0.089 A 
HETATM   33  C   LIG     1      21.014  48.920  20.654  1.00  0.00     0.053 A 
HETATM   34  C   LIG     1      19.994  48.017  21.029  1.00  0.00     0.139 A 
HETATM   35  N   LIG     1      19.013  47.667  20.127  1.00  0.00    -0.075 NA
BRANCH  32  36
HETATM   36  C   LIG     1      21.983  50.402  18.771  1.00  0.00     0.011 A 
HETATM   37  C   LIG     1      23.250  49.976  18.191  1.00  0.00     0.017 A 
HETATM   38  C   LIG     1      24.190  50.945  17.677  1.00  0.00     0.020 A 
HETATM   39  C   LIG     1      23.842  52.340  17.754  1.00  0.00     0.116 A 
HETATM   40  N   LIG     1      22.618  52.738  18.312  1.00  0.00    -0.272 NA
HETATM   41  C   LIG     1      21.694  51.827  18.814  1.00  0.00     0.130 A 
ENDBRANCH  32  36
ENDBRANCH  28  30
ENDBRANCH   1  28
TORSDOF 7
ENDMDL
