USER    Estimated Free Energy of Binding    =   +1.10 kcal/mol  [=(1)+(2)+(3)-(4)]
REMARK  7 active torsions:
REMARK  status: ('A' for Active; 'I' for Inactive)
REMARK    1  A    between atoms: C_1  and  N_2 
REMARK    2  A    between atoms: N_2  and  C_16 
REMARK    3  A    between atoms: C_10  and  N_11 
REMARK       I    between atoms: N_11  and  C_25 
REMARK    4  A    between atoms: N_13  and  C_32 
REMARK    5  A    between atoms: C_17  and  C_20 
REMARK    6  A    between atoms: C_25  and  C_26 
REMARK    7  A    between atoms: C_31  and  C_32 
ROOT
ATOM      1  C   LIG     1      16.213  -2.835   0.952 +0.00 -0.00    +0.057 A 
ATOM      2  C   LIG     1      15.032  -3.051   1.796 +0.00 +0.00    -0.035 A 
ATOM      3  C   LIG     1      14.703  -2.051   2.772 +0.00 -0.00    +0.011 A 
ATOM      4  C   LIG     1      15.513  -0.867   2.912 +0.00 -0.00    +0.030 A 
ATOM      5  C   LIG     1      16.659  -0.652   2.092 +0.00 -0.00    +0.037 A 
ATOM      6  C   LIG     1      16.998  -1.664   1.103 +0.00 -0.00    +0.060 A 
ATOM      7  C   LIG     1      14.123  -4.298   1.685 +0.00 -0.00    +0.050 C 
ENDROOT
BRANCH   5   8
ATOM      8  N   LIG     1      17.414   0.561   2.285 +0.00 +0.02    -0.323 N 
ATOM      9  C   LIG     1      18.780   0.745   2.144 +0.00 -0.02    +0.256 C 
ATOM     10  O   LIG     1      19.592  -0.161   2.036 +0.00 +0.02    -0.267 OA
ATOM     11  H   LIG     1      16.896   1.355   2.551 +0.00 -0.01    +0.169 HD
BRANCH   9  12
ATOM     12  C   LIG     1      19.323   2.138   2.135 +0.00 -0.00    +0.032 A 
ATOM     13  C   LIG     1      18.588   3.244   2.752 +0.00 -0.00    +0.017 A 
ATOM     14  C   LIG     1      19.126   4.581   2.715 +0.00 -0.00    +0.010 A 
ATOM     15  C   LIG     1      20.410   4.817   2.058 +0.00 +0.00    -0.033 A 
ATOM     16  C   LIG     1      21.121   3.700   1.459 +0.00 -0.00    +0.010 A 
ATOM     17  C   LIG     1      20.595   2.389   1.492 +0.00 -0.00    +0.017 A 
BRANCH  15  18
ATOM     18  C   LIG     1      21.050   6.214   1.952 +0.00 -0.02    +0.273 C 
BRANCH  18  19
ATOM     19  N   LIG     1      21.600   6.811   3.206 +0.00 +0.01    -0.064 N 
ATOM     20  C   LIG     1      20.536   7.600   3.929 +0.00 -0.02    +0.263 C 
ATOM     21  C   LIG     1      21.094   8.247   5.227 +0.00 -0.02    +0.262 C 
ATOM     22  N   LIG     1      21.689   7.191   6.146 +0.00 +0.01    -0.072 N 
ATOM     23  C   LIG     1      22.782   6.393   5.433 +0.00 -0.02    +0.262 C 
ATOM     24  C   LIG     1      22.226   7.750   7.396 +0.00 -0.02    +0.269 C 
ATOM     25  H   LIG     1      20.918   6.571   6.394 +0.00 -0.02    +0.279 HD
ATOM     26  C   LIG     1      22.192   5.749   4.137 +0.00 -0.02    +0.263 C 
ATOM     27  H   LIG     1      22.356   7.439   2.933 +0.00 -0.02    +0.280 HD
ENDBRANCH  18  19
ENDBRANCH  15  18
ENDBRANCH   9  12
ENDBRANCH   5   8
BRANCH   1  28
ATOM     28  N   LIG     1      16.585  -3.773  -0.013 +0.00 +0.01    -0.188 N 
ATOM     29  H   LIG     1      15.899  -4.163  -0.603 +0.00 -0.01    +0.184 HD
BRANCH  28  30
ATOM     30  C   LIG     1      17.908  -4.163  -0.149 +0.00 -0.05    +0.727 A 
ATOM     31  N   LIG     1      18.861  -3.210  -0.077 +0.00 +0.00    -0.062 NA
ATOM     32  C   LIG     1      20.198  -3.508  -0.213 +0.00 -0.01    +0.089 A 
ATOM     33  C   LIG     1      20.605  -4.866  -0.433 +0.00 -0.00    +0.053 A 
ATOM     34  C   LIG     1      19.588  -5.845  -0.504 +0.00 -0.01    +0.139 A 
ATOM     35  N   LIG     1      18.266  -5.481  -0.363 +0.00 +0.00    -0.075 NA
BRANCH  32  36
ATOM     36  C   LIG     1      21.155  -2.360  -0.117 +0.00 -0.00    +0.011 A 
ATOM     37  C   LIG     1      22.391  -2.421   0.652 +0.00 -0.00    +0.017 A 
ATOM     38  C   LIG     1      23.281  -1.285   0.711 +0.00 -0.00    +0.020 A 
ATOM     39  C   LIG     1      22.913  -0.092  -0.007 +0.00 -0.01    +0.116 A 
ATOM     40  N   LIG     1      21.721  -0.046  -0.745 +0.00 +0.02    -0.272 NA
ATOM     41  C   LIG     1      20.846  -1.125  -0.821 +0.00 -0.01    +0.130 A 
ENDBRANCH  32  36
ENDBRANCH  28  30
ENDBRANCH   1  28
TORSDOF 7
TER
ENDMDL
