MODEL 1
REMARK VINA RESULT:    -9.644      0.000      0.000
REMARK INTER + INTRA:         -14.572
REMARK INTER:                 -14.183
REMARK INTRA:                  -0.389
REMARK UNBOUND:                -0.982
REMARK  7 active torsions:
REMARK  status: ('A' for Active; 'I' for Inactive)
REMARK    1  A    between atoms: C_1  and  N_2 
REMARK    2  A    between atoms: N_2  and  C_16 
REMARK    3  A    between atoms: C_10  and  N_11 
REMARK       I    between atoms: N_11  and  C_25 
REMARK    4  A    between atoms: N_13  and  C_32 
REMARK    5  A    between atoms: C_17  and  C_20 
REMARK    6  A    between atoms: C_25  and  C_26 
REMARK    7  A    between atoms: C_31  and  C_32 
ROOT
HETATM    1  C   LIG     1      15.778  54.682  12.405  1.00  0.00     0.057 A 
HETATM    2  C   LIG     1      16.861  54.555  11.421  1.00  0.00    -0.035 A 
HETATM    3  C   LIG     1      17.859  53.547  11.639  1.00  0.00     0.011 A 
HETATM    4  C   LIG     1      17.794  52.685  12.793  1.00  0.00     0.030 A 
HETATM    5  C   LIG     1      16.742  52.804  13.747  1.00  0.00     0.037 A 
HETATM    6  C   LIG     1      15.729  53.825  13.533  1.00  0.00     0.060 A 
HETATM    7  C   LIG     1      16.977  55.447  10.163  1.00  0.00     0.050 C 
ENDROOT
BRANCH   5   8
HETATM    8  N   LIG     1      16.740  51.900  14.871  1.00  0.00    -0.323 N 
HETATM    9  C   LIG     1      15.750  51.729  15.824  1.00  0.00     0.256 C 
HETATM   10  O   LIG     1      14.802  52.484  15.979  1.00  0.00    -0.267 OA
HETATM   11  H   LIG     1      17.540  51.335  14.972  1.00  0.00     0.169 HD
BRANCH   9  12
HETATM   12  C   LIG     1      15.832  50.557  16.749  1.00  0.00     0.032 A 
HETATM   13  C   LIG     1      17.096  49.850  16.969  1.00  0.00     0.017 A 
HETATM   14  C   LIG     1      17.144  48.713  17.853  1.00  0.00     0.010 A 
HETATM   15  C   LIG     1      15.923  48.276  18.525  1.00  0.00    -0.033 A 
HETATM   16  C   LIG     1      14.684  48.999  18.293  1.00  0.00     0.010 A 
HETATM   17  C   LIG     1      14.632  50.114  17.426  1.00  0.00     0.017 A 
BRANCH  15  18
HETATM   18  C   LIG     1      15.877  47.060  19.469  1.00  0.00     0.273 C 
BRANCH  18  19
HETATM   19  N   LIG     1      17.106  46.764  20.264  1.00  0.00    -0.064 N 
HETATM   20  C   LIG     1      17.343  47.840  21.294  1.00  0.00     0.263 C 
HETATM   21  C   LIG     1      18.631  47.562  22.119  1.00  0.00     0.262 C 
HETATM   22  N   LIG     1      18.562  46.195  22.784  1.00  0.00    -0.072 N 
HETATM   23  C   LIG     1      18.339  45.090  21.750  1.00  0.00     0.262 C 
HETATM   24  C   LIG     1      19.755  45.883  23.585  1.00  0.00     0.269 C 
HETATM   25  H   LIG     1      17.767  46.235  23.422  1.00  0.00     0.279 HD
HETATM   26  C   LIG     1      17.036  45.393  20.941  1.00  0.00     0.263 C 
HETATM   27  H   LIG     1      17.889  46.747  19.610  1.00  0.00     0.280 HD
ENDBRANCH  18  19
ENDBRANCH  15  18
ENDBRANCH   9  12
ENDBRANCH   5   8
BRANCH   1  28
HETATM   28  N   LIG     1      14.779  55.646  12.248  1.00  0.00    -0.188 N 
HETATM   29  H   LIG     1      13.898  55.381  11.897  1.00  0.00     0.184 HD
BRANCH  28  30
HETATM   30  C   LIG     1      15.013  56.971  12.583  1.00  0.00     0.727 A 
HETATM   31  N   LIG     1      14.015  57.859  12.394  1.00  0.00    -0.062 NA
HETATM   32  C   LIG     1      14.167  59.195  12.690  1.00  0.00     0.089 A 
HETATM   33  C   LIG     1      15.414  59.669  13.218  1.00  0.00     0.053 A 
HETATM   34  C   LIG     1      16.442  58.719  13.408  1.00  0.00     0.139 A 
HETATM   35  N   LIG     1      16.228  57.395  13.089  1.00  0.00    -0.075 NA
BRANCH  32  36
HETATM   36  C   LIG     1      12.987  60.078  12.431  1.00  0.00     0.011 A 
HETATM   37  C   LIG     1      12.879  61.432  12.959  1.00  0.00     0.017 A 
HETATM   38  C   LIG     1      11.717  62.244  12.678  1.00  0.00     0.020 A 
HETATM   39  C   LIG     1      10.671  61.680  11.867  1.00  0.00     0.116 A 
HETATM   40  N   LIG     1      10.786  60.376  11.363  1.00  0.00    -0.272 NA
HETATM   41  C   LIG     1      11.893  59.572  11.615  1.00  0.00     0.130 A 
ENDBRANCH  32  36
ENDBRANCH  28  30
ENDBRANCH   1  28
TORSDOF 7
ENDMDL
MODEL 2
REMARK VINA RESULT:    -6.993      3.814     12.247
REMARK INTER + INTRA:         -10.836
REMARK INTER:                 -10.870
REMARK INTRA:                   0.034
REMARK UNBOUND:                -0.982
REMARK  7 active torsions:
REMARK  status: ('A' for Active; 'I' for Inactive)
REMARK    1  A    between atoms: C_1  and  N_2 
REMARK    2  A    between atoms: N_2  and  C_16 
REMARK    3  A    between atoms: C_10  and  N_11 
REMARK       I    between atoms: N_11  and  C_25 
REMARK    4  A    between atoms: N_13  and  C_32 
REMARK    5  A    between atoms: C_17  and  C_20 
REMARK    6  A    between atoms: C_25  and  C_26 
REMARK    7  A    between atoms: C_31  and  C_32 
ROOT
HETATM    1  C   LIG     1      18.228  48.711  18.954  1.00  0.00     0.057 A 
HETATM    2  C   LIG     1      17.221  47.650  19.086  1.00  0.00    -0.035 A 
HETATM    3  C   LIG     1      16.111  47.653  18.177  1.00  0.00     0.011 A 
HETATM    4  C   LIG     1      15.993  48.670  17.162  1.00  0.00     0.030 A 
HETATM    5  C   LIG     1      16.971  49.699  17.029  1.00  0.00     0.037 A 
HETATM    6  C   LIG     1      18.097  49.703  17.949  1.00  0.00     0.060 A 
HETATM    7  C   LIG     1      17.300  46.531  20.150  1.00  0.00     0.050 C 
ENDROOT
BRANCH   5   8
HETATM    8  N   LIG     1      16.789  50.677  15.984  1.00  0.00    -0.323 N 
HETATM    9  C   LIG     1      15.805  51.646  15.887  1.00  0.00     0.256 C 
HETATM   10  O   LIG     1      14.799  51.683  16.580  1.00  0.00    -0.267 OA
HETATM   11  H   LIG     1      17.445  50.651  15.251  1.00  0.00     0.169 HD
BRANCH   9  12
HETATM   12  C   LIG     1      15.952  52.724  14.861  1.00  0.00     0.032 A 
HETATM   13  C   LIG     1      14.851  53.643  14.562  1.00  0.00     0.017 A 
HETATM   14  C   LIG     1      15.013  54.662  13.556  1.00  0.00     0.010 A 
HETATM   15  C   LIG     1      16.284  54.768  12.842  1.00  0.00    -0.033 A 
HETATM   16  C   LIG     1      17.361  53.846  13.162  1.00  0.00     0.010 A 
HETATM   17  C   LIG     1      17.205  52.845  14.147  1.00  0.00     0.017 A 
BRANCH  15  18
HETATM   18  C   LIG     1      16.539  55.812  11.738  1.00  0.00     0.273 C 
BRANCH  18  19
HETATM   19  N   LIG     1      15.825  57.119  11.855  1.00  0.00    -0.064 N 
HETATM   20  C   LIG     1      14.340  56.901  12.011  1.00  0.00     0.263 C 
HETATM   21  C   LIG     1      13.577  58.250  12.113  1.00  0.00     0.262 C 
HETATM   22  N   LIG     1      14.114  59.091  13.263  1.00  0.00    -0.072 N 
HETATM   23  C   LIG     1      15.616  59.335  13.110  1.00  0.00     0.262 C 
HETATM   24  C   LIG     1      13.420  60.378  13.410  1.00  0.00     0.269 C 
HETATM   25  H   LIG     1      13.938  58.549  14.109  1.00  0.00     0.279 HD
HETATM   26  C   LIG     1      16.358  57.962  13.017  1.00  0.00     0.263 C 
HETATM   27  H   LIG     1      16.000  57.634  10.992  1.00  0.00     0.280 HD
ENDBRANCH  18  19
ENDBRANCH  15  18
ENDBRANCH   9  12
ENDBRANCH   5   8
BRANCH   1  28
HETATM   28  N   LIG     1      19.329  48.763  19.810  1.00  0.00    -0.188 N 
HETATM   29  H   LIG     1      19.199  49.002  20.757  1.00  0.00     0.184 HD
BRANCH  28  30
HETATM   30  C   LIG     1      20.604  48.481  19.343  1.00  0.00     0.727 A 
HETATM   31  N   LIG     1      21.393  49.517  18.990  1.00  0.00    -0.062 NA
HETATM   32  C   LIG     1      22.668  49.326  18.506  1.00  0.00     0.089 A 
HETATM   33  C   LIG     1      23.186  47.995  18.373  1.00  0.00     0.053 A 
HETATM   34  C   LIG     1      22.341  46.928  18.752  1.00  0.00     0.139 A 
HETATM   35  N   LIG     1      21.073  47.186  19.226  1.00  0.00    -0.075 NA
BRANCH  32  36
HETATM   36  C   LIG     1      23.440  50.557  18.144  1.00  0.00     0.011 A 
HETATM   37  C   LIG     1      24.253  50.656  16.938  1.00  0.00     0.017 A 
HETATM   38  C   LIG     1      24.978  51.868  16.635  1.00  0.00     0.020 A 
HETATM   39  C   LIG     1      24.878  52.971  17.554  1.00  0.00     0.116 A 
HETATM   40  N   LIG     1      24.091  52.865  18.710  1.00  0.00    -0.272 NA
HETATM   41  C   LIG     1      23.381  51.711  19.028  1.00  0.00     0.130 A 
ENDBRANCH  32  36
ENDBRANCH  28  30
ENDBRANCH   1  28
TORSDOF 7
ENDMDL
MODEL 3
REMARK VINA RESULT:    -6.915      3.036     12.409
REMARK INTER + INTRA:         -10.726
REMARK INTER:                  -9.838
REMARK INTRA:                  -0.889
REMARK UNBOUND:                -0.982
REMARK  7 active torsions:
REMARK  status: ('A' for Active; 'I' for Inactive)
REMARK    1  A    between atoms: C_1  and  N_2 
REMARK    2  A    between atoms: N_2  and  C_16 
REMARK    3  A    between atoms: C_10  and  N_11 
REMARK       I    between atoms: N_11  and  C_25 
REMARK    4  A    between atoms: N_13  and  C_32 
REMARK    5  A    between atoms: C_17  and  C_20 
REMARK    6  A    between atoms: C_25  and  C_26 
REMARK    7  A    between atoms: C_31  and  C_32 
ROOT
HETATM    1  C   LIG     1      16.945  48.690  17.677  1.00  0.00     0.057 A 
HETATM    2  C   LIG     1      15.615  48.383  18.216  1.00  0.00    -0.035 A 
HETATM    3  C   LIG     1      14.542  49.293  17.933  1.00  0.00     0.011 A 
HETATM    4  C   LIG     1      14.770  50.474  17.137  1.00  0.00     0.030 A 
HETATM    5  C   LIG     1      16.060  50.773  16.609  1.00  0.00     0.037 A 
HETATM    6  C   LIG     1      17.152  49.856  16.896  1.00  0.00     0.060 A 
HETATM    7  C   LIG     1      15.312  47.129  19.069  1.00  0.00     0.050 C 
ENDROOT
BRANCH   5   8
HETATM    8  N   LIG     1      16.208  51.968  15.815  1.00  0.00    -0.323 N 
HETATM    9  C   LIG     1      15.742  52.200  14.532  1.00  0.00     0.256 C 
HETATM   10  O   LIG     1      15.310  51.334  13.786  1.00  0.00    -0.267 OA
HETATM   11  H   LIG     1      16.700  52.709  16.238  1.00  0.00     0.169 HD
BRANCH   9  12
HETATM   12  C   LIG     1      15.775  53.594  13.993  1.00  0.00     0.032 A 
HETATM   13  C   LIG     1      17.031  54.341  13.896  1.00  0.00     0.017 A 
HETATM   14  C   LIG     1      17.032  55.691  13.388  1.00  0.00     0.010 A 
HETATM   15  C   LIG     1      15.772  56.300  12.972  1.00  0.00    -0.033 A 
HETATM   16  C   LIG     1      14.541  55.534  13.074  1.00  0.00     0.010 A 
HETATM   17  C   LIG     1      14.536  54.212  13.572  1.00  0.00     0.017 A 
BRANCH  15  18
HETATM   18  C   LIG     1      15.676  57.742  12.438  1.00  0.00     0.273 C 
BRANCH  18  19
HETATM   19  N   LIG     1      14.378  58.456  12.626  1.00  0.00    -0.064 N 
HETATM   20  C   LIG     1      14.613  59.868  13.102  1.00  0.00     0.263 C 
HETATM   21  C   LIG     1      13.273  60.623  13.324  1.00  0.00     0.262 C 
HETATM   22  N   LIG     1      12.434  60.622  12.054  1.00  0.00    -0.072 N 
HETATM   23  C   LIG     1      12.172  59.196  11.568  1.00  0.00     0.262 C 
HETATM   24  C   LIG     1      11.155  61.331  12.207  1.00  0.00     0.269 C 
HETATM   25  H   LIG     1      12.984  61.127  11.358  1.00  0.00     0.279 HD
HETATM   26  C   LIG     1      13.536  58.464  11.347  1.00  0.00     0.263 C 
HETATM   27  H   LIG     1      13.855  57.945  13.338  1.00  0.00     0.280 HD
ENDBRANCH  18  19
ENDBRANCH  15  18
ENDBRANCH   9  12
ENDBRANCH   5   8
BRANCH   1  28
HETATM   28  N   LIG     1      18.030  47.844  17.921  1.00  0.00    -0.188 N 
HETATM   29  H   LIG     1      18.104  46.994  17.430  1.00  0.00     0.184 HD
BRANCH  28  30
HETATM   30  C   LIG     1      19.002  48.188  18.847  1.00  0.00     0.727 A 
HETATM   31  N   LIG     1      19.964  49.054  18.464  1.00  0.00    -0.062 NA
HETATM   32  C   LIG     1      20.974  49.440  19.317  1.00  0.00     0.089 A 
HETATM   33  C   LIG     1      21.014  48.920  20.654  1.00  0.00     0.053 A 
HETATM   34  C   LIG     1      19.994  48.017  21.029  1.00  0.00     0.139 A 
HETATM   35  N   LIG     1      19.013  47.667  20.127  1.00  0.00    -0.075 NA
BRANCH  32  36
HETATM   36  C   LIG     1      21.983  50.402  18.771  1.00  0.00     0.011 A 
HETATM   37  C   LIG     1      23.250  49.976  18.191  1.00  0.00     0.017 A 
HETATM   38  C   LIG     1      24.190  50.945  17.677  1.00  0.00     0.020 A 
HETATM   39  C   LIG     1      23.842  52.340  17.754  1.00  0.00     0.116 A 
HETATM   40  N   LIG     1      22.618  52.738  18.312  1.00  0.00    -0.272 NA
HETATM   41  C   LIG     1      21.694  51.827  18.814  1.00  0.00     0.130 A 
ENDBRANCH  32  36
ENDBRANCH  28  30
ENDBRANCH   1  28
TORSDOF 7
ENDMDL
MODEL 4
REMARK VINA RESULT:    -6.818      1.619     13.547
REMARK INTER + INTRA:         -10.590
REMARK INTER:                  -9.634
REMARK INTRA:                  -0.956
REMARK UNBOUND:                -0.982
REMARK  7 active torsions:
REMARK  status: ('A' for Active; 'I' for Inactive)
REMARK    1  A    between atoms: C_1  and  N_2 
REMARK    2  A    between atoms: N_2  and  C_16 
REMARK    3  A    between atoms: C_10  and  N_11 
REMARK       I    between atoms: N_11  and  C_25 
REMARK    4  A    between atoms: N_13  and  C_32 
REMARK    5  A    between atoms: C_17  and  C_20 
REMARK    6  A    between atoms: C_25  and  C_26 
REMARK    7  A    between atoms: C_31  and  C_32 
ROOT
HETATM    1  C   LIG     1      16.964  48.667  17.535  1.00  0.00     0.057 A 
HETATM    2  C   LIG     1      15.653  48.386  18.134  1.00  0.00    -0.035 A 
HETATM    3  C   LIG     1      14.593  49.328  17.916  1.00  0.00     0.011 A 
HETATM    4  C   LIG     1      14.813  50.515  17.129  1.00  0.00     0.030 A 
HETATM    5  C   LIG     1      16.084  50.789  16.543  1.00  0.00     0.037 A 
HETATM    6  C   LIG     1      17.163  49.839  16.762  1.00  0.00     0.060 A 
HETATM    7  C   LIG     1      15.358  47.127  18.982  1.00  0.00     0.050 C 
ENDROOT
BRANCH   5   8
HETATM    8  N   LIG     1      16.225  51.992  15.760  1.00  0.00    -0.323 N 
HETATM    9  C   LIG     1      15.757  52.234  14.479  1.00  0.00     0.256 C 
HETATM   10  O   LIG     1      15.328  51.373  13.725  1.00  0.00    -0.267 OA
HETATM   11  H   LIG     1      16.714  52.731  16.189  1.00  0.00     0.169 HD
BRANCH   9  12
HETATM   12  C   LIG     1      15.783  53.633  13.954  1.00  0.00     0.032 A 
HETATM   13  C   LIG     1      17.039  54.377  13.834  1.00  0.00     0.017 A 
HETATM   14  C   LIG     1      17.034  55.732  13.340  1.00  0.00     0.010 A 
HETATM   15  C   LIG     1      15.766  56.350  12.961  1.00  0.00    -0.033 A 
HETATM   16  C   LIG     1      14.535  55.587  13.085  1.00  0.00     0.010 A 
HETATM   17  C   LIG     1      14.536  54.260  13.569  1.00  0.00     0.017 A 
BRANCH  15  18
HETATM   18  C   LIG     1      15.663  57.797  12.444  1.00  0.00     0.273 C 
BRANCH  18  19
HETATM   19  N   LIG     1      14.354  58.495  12.620  1.00  0.00    -0.064 N 
HETATM   20  C   LIG     1      14.568  59.915  13.084  1.00  0.00     0.263 C 
HETATM   21  C   LIG     1      13.217  60.653  13.294  1.00  0.00     0.262 C 
HETATM   22  N   LIG     1      12.384  60.630  12.020  1.00  0.00    -0.072 N 
HETATM   23  C   LIG     1      12.144  59.195  11.545  1.00  0.00     0.262 C 
HETATM   24  C   LIG     1      11.095  61.322  12.161  1.00  0.00     0.269 C 
HETATM   25  H   LIG     1      12.930  61.136  11.322  1.00  0.00     0.279 HD
HETATM   26  C   LIG     1      13.519  58.481  11.337  1.00  0.00     0.263 C 
HETATM   27  H   LIG     1      13.835  57.984  13.334  1.00  0.00     0.280 HD
ENDBRANCH  18  19
ENDBRANCH  15  18
ENDBRANCH   9  12
ENDBRANCH   5   8
BRANCH   1  28
HETATM   28  N   LIG     1      18.035  47.789  17.713  1.00  0.00    -0.188 N 
HETATM   29  H   LIG     1      18.164  47.044  17.082  1.00  0.00     0.184 HD
BRANCH  28  30
HETATM   30  C   LIG     1      18.919  47.955  18.768  1.00  0.00     0.727 A 
HETATM   31  N   LIG     1      18.853  47.082  19.794  1.00  0.00    -0.062 NA
HETATM   32  C   LIG     1      19.686  47.181  20.886  1.00  0.00     0.089 A 
HETATM   33  C   LIG     1      20.659  48.233  20.946  1.00  0.00     0.053 A 
HETATM   34  C   LIG     1      20.709  49.133  19.858  1.00  0.00     0.139 A 
HETATM   35  N   LIG     1      19.845  48.983  18.795  1.00  0.00    -0.075 NA
BRANCH  32  36
HETATM   36  C   LIG     1      19.509  46.153  21.960  1.00  0.00     0.011 A 
HETATM   37  C   LIG     1      18.849  44.874  21.732  1.00  0.00     0.017 A 
HETATM   38  C   LIG     1      18.705  43.916  22.804  1.00  0.00     0.020 A 
HETATM   39  C   LIG     1      19.226  44.259  24.100  1.00  0.00     0.116 A 
HETATM   40  N   LIG     1      19.861  45.493  24.308  1.00  0.00    -0.272 NA
HETATM   41  C   LIG     1      20.016  46.434  23.295  1.00  0.00     0.130 A 
ENDBRANCH  32  36
ENDBRANCH  28  30
ENDBRANCH   1  28
TORSDOF 7
ENDMDL
