USER    Estimated Free Energy of Binding    =   +1.11 kcal/mol  [=(1)+(2)+(3)-(4)]
REMARK  7 active torsions:
REMARK  status: ('A' for Active; 'I' for Inactive)
REMARK    1  A    between atoms: C_1  and  N_2 
REMARK    2  A    between atoms: N_2  and  C_16 
REMARK    3  A    between atoms: C_10  and  N_11 
REMARK       I    between atoms: N_11  and  C_25 
REMARK    4  A    between atoms: N_13  and  C_32 
REMARK    5  A    between atoms: C_17  and  C_20 
REMARK    6  A    between atoms: C_25  and  C_26 
REMARK    7  A    between atoms: C_31  and  C_32 
ROOT
ATOM      1  C   LIG     1      14.693  -0.221  -1.158 +0.00 -0.00    +0.057 A 
ATOM      2  C   LIG     1      15.356  -1.528  -1.079 +0.00 +0.00    -0.035 A 
ATOM      3  C   LIG     1      16.402  -1.700  -0.112 +0.00 -0.00    +0.011 A 
ATOM      4  C   LIG     1      16.784  -0.616   0.758 +0.00 -0.00    +0.030 A 
ATOM      5  C   LIG     1      16.140   0.653   0.687 +0.00 -0.00    +0.037 A 
ATOM      6  C   LIG     1      15.081   0.835  -0.293 +0.00 -0.00    +0.060 A 
ATOM      7  C   LIG     1      14.983  -2.727  -1.982 +0.00 -0.00    +0.050 C 
ENDROOT
BRANCH   5   8
ATOM      8  N   LIG     1      16.571   1.686   1.597 +0.00 +0.02    -0.323 N 
ATOM      9  C   LIG     1      16.518   3.058   1.415 +0.00 -0.02    +0.256 C 
ATOM     10  O   LIG     1      16.286   3.605   0.347 +0.00 +0.02    -0.267 OA
ATOM     11  H   LIG     1      16.950   1.377   2.452 +0.00 -0.01    +0.169 HD
BRANCH   9  12
ATOM     12  C   LIG     1      16.773   3.952   2.585 +0.00 -0.00    +0.032 A 
ATOM     13  C   LIG     1      17.484   3.467   3.771 +0.00 -0.00    +0.017 A 
ATOM     14  C   LIG     1      17.702   4.346   4.893 +0.00 -0.00    +0.010 A 
ATOM     15  C   LIG     1      17.210   5.720   4.833 +0.00 +0.00    -0.033 A 
ATOM     16  C   LIG     1      16.513   6.176   3.641 +0.00 -0.00    +0.010 A 
ATOM     17  C   LIG     1      16.296   5.318   2.540 +0.00 -0.00    +0.017 A 
BRANCH  15  18
ATOM     18  C   LIG     1      17.379   6.720   5.991 +0.00 -0.02    +0.273 C 
BRANCH  18  19
ATOM     19  N   LIG     1      18.750   7.261   6.233 +0.00 +0.01    -0.064 N 
ATOM     20  C   LIG     1      19.504   6.382   7.200 +0.00 -0.02    +0.263 C 
ATOM     21  C   LIG     1      20.927   6.939   7.482 +0.00 -0.02    +0.262 C 
ATOM     22  N   LIG     1      21.711   7.100   6.187 +0.00 +0.01    -0.072 N 
ATOM     23  C   LIG     1      20.967   8.003   5.202 +0.00 -0.02    +0.262 C 
ATOM     24  C   LIG     1      23.071   7.619   6.397 +0.00 -0.02    +0.269 C 
ATOM     25  H   LIG     1      21.798   6.162   5.796 +0.00 -0.02    +0.279 HD
ATOM     26  C   LIG     1      19.544   7.415   4.933 +0.00 -0.02    +0.263 C 
ATOM     27  H   LIG     1      18.639   8.190   6.640 +0.00 -0.02    +0.280 HD
ENDBRANCH  18  19
ENDBRANCH  15  18
ENDBRANCH   9  12
ENDBRANCH   5   8
BRANCH   1  28
ATOM     28  N   LIG     1      13.670   0.009  -2.081 +0.00 +0.01    -0.188 N 
ATOM     29  H   LIG     1      12.990  -0.686  -2.237 +0.00 -0.01    +0.184 HD
BRANCH  28  30
ATOM     30  C   LIG     1      13.601   1.204  -2.780 +0.00 -0.05    +0.727 A 
ATOM     31  N   LIG     1      13.771   2.352  -2.091 +0.00 +0.00    -0.062 NA
ATOM     32  C   LIG     1      13.708   3.583  -2.706 +0.00 -0.01    +0.089 A 
ATOM     33  C   LIG     1      13.459   3.661  -4.117 +0.00 -0.00    +0.053 A 
ATOM     34  C   LIG     1      13.286   2.445  -4.814 +0.00 -0.01    +0.139 A 
ATOM     35  N   LIG     1      13.358   1.245  -4.140 +0.00 +0.01    -0.075 NA
BRANCH  32  36
ATOM     36  C   LIG     1      13.908   4.781  -1.831 +0.00 -0.00    +0.011 A 
ATOM     37  C   LIG     1      13.342   4.887  -0.492 +0.00 -0.00    +0.017 A 
ATOM     38  C   LIG     1      13.566   6.066   0.313 +0.00 -0.00    +0.020 A 
ATOM     39  C   LIG     1      14.359   7.130  -0.243 +0.00 -0.01    +0.116 A 
ATOM     40  N   LIG     1      14.901   7.016  -1.532 +0.00 +0.02    -0.272 NA
ATOM     41  C   LIG     1      14.703   5.893  -2.329 +0.00 -0.01    +0.130 A 
ENDBRANCH  32  36
ENDBRANCH  28  30
ENDBRANCH   1  28
TORSDOF 7
TER
ENDMDL
