USER    Estimated Free Energy of Binding    =   +1.11 kcal/mol  [=(1)+(2)+(3)-(4)]
REMARK  7 active torsions:
REMARK  status: ('A' for Active; 'I' for Inactive)
REMARK    1  A    between atoms: C_1  and  N_2 
REMARK    2  A    between atoms: N_2  and  C_16 
REMARK    3  A    between atoms: C_10  and  N_11 
REMARK       I    between atoms: N_11  and  C_25 
REMARK    4  A    between atoms: N_13  and  C_32 
REMARK    5  A    between atoms: C_17  and  C_20 
REMARK    6  A    between atoms: C_25  and  C_26 
REMARK    7  A    between atoms: C_31  and  C_32 
ROOT
ATOM      1  C   LIG     1      12.767   5.711  -1.889 +0.00 -0.00    +0.057 A 
ATOM      2  C   LIG     1      12.233   7.069  -2.044 +0.00 +0.00    -0.035 A 
ATOM      3  C   LIG     1      12.980   8.159  -1.485 +0.00 -0.00    +0.011 A 
ATOM      4  C   LIG     1      14.222   7.921  -0.792 +0.00 -0.00    +0.030 A 
ATOM      5  C   LIG     1      14.745   6.604  -0.643 +0.00 -0.00    +0.037 A 
ATOM      6  C   LIG     1      13.991   5.494  -1.206 +0.00 -0.00    +0.060 A 
ATOM      7  C   LIG     1      10.911   7.384  -2.782 +0.00 -0.00    +0.050 C 
ENDROOT
BRANCH   5   8
ATOM      8  N   LIG     1      15.998   6.446   0.054 +0.00 +0.02    -0.323 N 
ATOM      9  C   LIG     1      16.397   5.392   0.859 +0.00 -0.02    +0.256 C 
ATOM     10  O   LIG     1      15.651   4.518   1.275 +0.00 +0.02    -0.267 OA
ATOM     11  H   LIG     1      16.648   7.177  -0.055 +0.00 -0.01    +0.169 HD
BRANCH   9  12
ATOM     12  C   LIG     1      17.831   5.302   1.272 +0.00 -0.00    +0.032 A 
ATOM     13  C   LIG     1      18.705   6.477   1.243 +0.00 -0.00    +0.017 A 
ATOM     14  C   LIG     1      20.089   6.359   1.630 +0.00 -0.00    +0.010 A 
ATOM     15  C   LIG     1      20.606   5.060   2.053 +0.00 +0.00    -0.033 A 
ATOM     16  C   LIG     1      19.715   3.912   2.078 +0.00 -0.00    +0.010 A 
ATOM     17  C   LIG     1      18.359   4.023   1.697 +0.00 -0.00    +0.017 A 
BRANCH  15  18
ATOM     18  C   LIG     1      22.074   4.837   2.463 +0.00 -0.02    +0.273 C 
BRANCH  18  19
ATOM     19  N   LIG     1      22.511   5.406   3.773 +0.00 +0.00    -0.064 N 
ATOM     20  C   LIG     1      22.937   6.844   3.612 +0.00 -0.02    +0.263 C 
ATOM     21  C   LIG     1      23.416   7.449   4.961 +0.00 -0.02    +0.262 C 
ATOM     22  N   LIG     1      22.331   7.331   6.023 +0.00 +0.01    -0.072 N 
ATOM     23  C   LIG     1      21.901   5.875   6.210 +0.00 -0.02    +0.262 C 
ATOM     24  C   LIG     1      22.730   7.896   7.320 +0.00 -0.02    +0.269 C 
ATOM     25  H   LIG     1      21.544   7.881   5.678 +0.00 -0.02    +0.279 HD
ATOM     26  C   LIG     1      21.418   5.297   4.840 +0.00 -0.02    +0.263 C 
ATOM     27  H   LIG     1      23.308   4.853   4.089 +0.00 -0.02    +0.280 HD
ENDBRANCH  18  19
ENDBRANCH  15  18
ENDBRANCH   9  12
ENDBRANCH   5   8
BRANCH   1  28
ATOM     28  N   LIG     1      12.085   4.609  -2.409 +0.00 +0.01    -0.188 N 
ATOM     29  H   LIG     1      11.748   4.637  -3.335 +0.00 -0.01    +0.184 HD
BRANCH  28  30
ATOM     30  C   LIG     1      11.875   3.476  -1.638 +0.00 -0.05    +0.727 A 
ATOM     31  N   LIG     1      12.922   2.973  -0.952 +0.00 +0.00    -0.062 NA
ATOM     32  C   LIG     1      12.804   1.846  -0.171 +0.00 -0.01    +0.089 A 
ATOM     33  C   LIG     1      11.537   1.180  -0.071 +0.00 -0.00    +0.053 A 
ATOM     34  C   LIG     1      10.456   1.728  -0.797 +0.00 -0.01    +0.139 A 
ATOM     35  N   LIG     1      10.640   2.858  -1.564 +0.00 +0.01    -0.075 NA
BRANCH  32  36
ATOM     36  C   LIG     1      14.041   1.385   0.535 +0.00 -0.00    +0.011 A 
ATOM     37  C   LIG     1      15.377   1.537  -0.028 +0.00 -0.00    +0.017 A 
ATOM     38  C   LIG     1      16.540   1.076   0.695 +0.00 -0.00    +0.020 A 
ATOM     39  C   LIG     1      16.343   0.462   1.982 +0.00 -0.01    +0.116 A 
ATOM     40  N   LIG     1      15.053   0.323   2.515 +0.00 +0.02    -0.272 NA
ATOM     41  C   LIG     1      13.915   0.759   1.842 +0.00 -0.01    +0.130 A 
ENDBRANCH  32  36
ENDBRANCH  28  30
ENDBRANCH   1  28
TORSDOF 7
TER
ENDMDL
