USER    Estimated Free Energy of Binding    =   +1.10 kcal/mol  [=(1)+(2)+(3)-(4)]
REMARK  7 active torsions:
REMARK  status: ('A' for Active; 'I' for Inactive)
REMARK    1  A    between atoms: C_1  and  N_2 
REMARK    2  A    between atoms: N_2  and  C_16 
REMARK    3  A    between atoms: C_10  and  N_11 
REMARK       I    between atoms: N_11  and  C_25 
REMARK    4  A    between atoms: N_13  and  C_32 
REMARK    5  A    between atoms: C_17  and  C_20 
REMARK    6  A    between atoms: C_25  and  C_26 
REMARK    7  A    between atoms: C_31  and  C_32 
ROOT
ATOM      1  C   LIG     1      15.683  -1.912   1.491 +0.00 -0.00    +0.057 A 
ATOM      2  C   LIG     1      16.268  -3.010   0.711 +0.00 +0.00    -0.035 A 
ATOM      3  C   LIG     1      17.467  -2.750  -0.032 +0.00 -0.00    +0.011 A 
ATOM      4  C   LIG     1      18.078  -1.444  -0.008 +0.00 -0.00    +0.030 A 
ATOM      5  C   LIG     1      17.516  -0.377   0.751 +0.00 -0.00    +0.037 A 
ATOM      6  C   LIG     1      16.298  -0.634   1.504 +0.00 -0.00    +0.060 A 
ATOM      7  C   LIG     1      15.659  -4.431   0.654 +0.00 -0.00    +0.050 C 
ENDROOT
BRANCH   5   8
ATOM      8  N   LIG     1      18.189   0.898   0.733 +0.00 +0.02    -0.323 N 
ATOM      9  C   LIG     1      17.832   2.059   1.398 +0.00 -0.02    +0.256 C 
ATOM     10  O   LIG     1      16.753   2.239   1.943 +0.00 +0.02    -0.267 OA
ATOM     11  H   LIG     1      19.002   0.949   0.180 +0.00 -0.01    +0.169 HD
BRANCH   9  12
ATOM     12  C   LIG     1      18.808   3.190   1.452 +0.00 -0.00    +0.032 A 
ATOM     13  C   LIG     1      20.138   3.075   0.847 +0.00 -0.00    +0.017 A 
ATOM     14  C   LIG     1      21.067   4.174   0.929 +0.00 -0.00    +0.010 A 
ATOM     15  C   LIG     1      20.668   5.399   1.619 +0.00 +0.00    -0.033 A 
ATOM     16  C   LIG     1      19.341   5.488   2.205 +0.00 -0.00    +0.010 A 
ATOM     17  C   LIG     1      18.428   4.412   2.128 +0.00 -0.00    +0.017 A 
BRANCH  15  18
ATOM     18  C   LIG     1      21.602   6.614   1.773 +0.00 -0.02    +0.273 C 
BRANCH  18  19
ATOM     19  N   LIG     1      22.100   6.924   3.146 +0.00 +0.01    -0.064 N 
ATOM     20  C   LIG     1      21.167   7.881   3.846 +0.00 -0.02    +0.263 C 
ATOM     21  C   LIG     1      21.679   8.233   5.270 +0.00 -0.02    +0.262 C 
ATOM     22  N   LIG     1      21.871   6.973   6.103 +0.00 +0.01    -0.072 N 
ATOM     23  C   LIG     1      22.828   5.999   5.415 +0.00 -0.02    +0.262 C 
ATOM     24  C   LIG     1      22.348   7.250   7.466 +0.00 -0.02    +0.269 C 
ATOM     25  H   LIG     1      20.946   6.549   6.182 +0.00 -0.02    +0.279 HD
ATOM     26  C   LIG     1      22.285   5.658   3.989 +0.00 -0.02    +0.263 C 
ATOM     27  H   LIG     1      23.015   7.363   3.042 +0.00 -0.02    +0.280 HD
ENDBRANCH  18  19
ENDBRANCH  15  18
ENDBRANCH   9  12
ENDBRANCH   5   8
BRANCH   1  28
ATOM     28  N   LIG     1      14.515  -2.103   2.233 +0.00 +0.01    -0.188 N 
ATOM     29  H   LIG     1      13.761  -2.595   1.835 +0.00 -0.01    +0.184 HD
BRANCH  28  30
ATOM     30  C   LIG     1      14.407  -1.609   3.524 +0.00 -0.05    +0.727 A 
ATOM     31  N   LIG     1      14.862  -0.362   3.766 +0.00 +0.00    -0.062 NA
ATOM     32  C   LIG     1      14.803   0.201   5.021 +0.00 -0.01    +0.089 A 
ATOM     33  C   LIG     1      14.240  -0.546   6.110 +0.00 -0.00    +0.053 A 
ATOM     34  C   LIG     1      13.770  -1.848   5.829 +0.00 -0.01    +0.139 A 
ATOM     35  N   LIG     1      13.861  -2.356   4.551 +0.00 +0.01    -0.075 NA
BRANCH  32  36
ATOM     36  C   LIG     1      15.346   1.589   5.160 +0.00 -0.00    +0.011 A 
ATOM     37  C   LIG     1      14.493   2.768   5.247 +0.00 -0.00    +0.017 A 
ATOM     38  C   LIG     1      15.068   4.087   5.381 +0.00 -0.00    +0.020 A 
ATOM     39  C   LIG     1      16.502   4.204   5.423 +0.00 -0.01    +0.116 A 
ATOM     40  N   LIG     1      17.313   3.062   5.340 +0.00 +0.02    -0.272 NA
ATOM     41  C   LIG     1      16.787   1.780   5.212 +0.00 -0.01    +0.130 A 
ENDBRANCH  32  36
ENDBRANCH  28  30
ENDBRANCH   1  28
TORSDOF 7
TER
ENDMDL
