USER    Estimated Free Energy of Binding    =   +1.10 kcal/mol  [=(1)+(2)+(3)-(4)]
REMARK  7 active torsions:
REMARK  status: ('A' for Active; 'I' for Inactive)
REMARK    1  A    between atoms: C_1  and  N_2 
REMARK    2  A    between atoms: N_2  and  C_16 
REMARK    3  A    between atoms: C_10  and  N_11 
REMARK       I    between atoms: N_11  and  C_25 
REMARK    4  A    between atoms: N_13  and  C_32 
REMARK    5  A    between atoms: C_17  and  C_20 
REMARK    6  A    between atoms: C_25  and  C_26 
REMARK    7  A    between atoms: C_31  and  C_32 
ROOT
ATOM      1  C   LIG     1      12.774   4.439  -2.404 +0.00 -0.00    +0.057 A 
ATOM      2  C   LIG     1      12.684   4.505  -3.867 +0.00 +0.00    -0.035 A 
ATOM      3  C   LIG     1      13.808   5.022  -4.593 +0.00 -0.00    +0.011 A 
ATOM      4  C   LIG     1      14.992   5.462  -3.898 +0.00 -0.00    +0.030 A 
ATOM      5  C   LIG     1      15.084   5.397  -2.477 +0.00 -0.00    +0.037 A 
ATOM      6  C   LIG     1      13.947   4.875  -1.736 +0.00 -0.00    +0.060 A 
ATOM      7  C   LIG     1      11.442   4.042  -4.665 +0.00 -0.00    +0.050 C 
ENDROOT
BRANCH   5   8
ATOM      8  N   LIG     1      16.305   5.846  -1.854 +0.00 +0.02    -0.323 N 
ATOM      9  C   LIG     1      16.447   6.556  -0.673 +0.00 -0.02    +0.256 C 
ATOM     10  O   LIG     1      15.528   7.101  -0.080 +0.00 +0.02    -0.267 OA
ATOM     11  H   LIG     1      17.139   5.621  -2.327 +0.00 -0.01    +0.169 HD
BRANCH   9  12
ATOM     12  C   LIG     1      17.808   6.694  -0.073 +0.00 -0.00    +0.032 A 
ATOM     13  C   LIG     1      18.943   5.915  -0.576 +0.00 -0.00    +0.017 A 
ATOM     14  C   LIG     1      20.242   6.055   0.033 +0.00 -0.00    +0.010 A 
ATOM     15  C   LIG     1      20.414   6.979   1.151 +0.00 +0.00    -0.033 A 
ATOM     16  C   LIG     1      19.272   7.743   1.627 +0.00 -0.00    +0.010 A 
ATOM     17  C   LIG     1      17.997   7.608   1.033 +0.00 -0.00    +0.017 A 
BRANCH  15  18
ATOM     18  C   LIG     1      21.759   7.176   1.875 +0.00 -0.02    +0.273 C 
BRANCH  18  19
ATOM     19  N   LIG     1      21.897   6.578   3.236 +0.00 +0.01    -0.064 N 
ATOM     20  C   LIG     1      21.503   7.576   4.297 +0.00 -0.02    +0.263 C 
ATOM     21  C   LIG     1      21.659   6.980   5.724 +0.00 -0.02    +0.262 C 
ATOM     22  N   LIG     1      20.846   5.701   5.868 +0.00 +0.01    -0.072 N 
ATOM     23  C   LIG     1      21.247   4.672   4.810 +0.00 -0.02    +0.262 C 
ATOM     24  C   LIG     1      20.953   5.098   7.205 +0.00 -0.02    +0.269 C 
ATOM     25  H   LIG     1      19.872   5.974   5.731 +0.00 -0.02    +0.279 HD
ATOM     26  C   LIG     1      21.073   5.296   3.387 +0.00 -0.02    +0.263 C 
ATOM     27  H   LIG     1      22.879   6.331   3.357 +0.00 -0.02    +0.280 HD
ENDBRANCH  18  19
ENDBRANCH  15  18
ENDBRANCH   9  12
ENDBRANCH   5   8
BRANCH   1  28
ATOM     28  N   LIG     1      11.711   3.947  -1.642 +0.00 +0.01    -0.188 N 
ATOM     29  H   LIG     1      11.248   3.125  -1.926 +0.00 -0.01    +0.184 HD
BRANCH  28  30
ATOM     30  C   LIG     1      11.300   4.603  -0.492 +0.00 -0.05    +0.727 A 
ATOM     31  N   LIG     1      12.250   5.070   0.345 +0.00 +0.00    -0.062 NA
ATOM     32  C   LIG     1      11.928   5.723   1.514 +0.00 -0.01    +0.089 A 
ATOM     33  C   LIG     1      10.551   5.924   1.862 +0.00 -0.00    +0.053 A 
ATOM     34  C   LIG     1       9.577   5.427   0.967 +0.00 -0.01    +0.139 A 
ATOM     35  N   LIG     1       9.963   4.779  -0.186 +0.00 +0.01    -0.075 NA
BRANCH  32  36
ATOM     36  C   LIG     1      13.074   6.187   2.360 +0.00 -0.00    +0.011 A 
ATOM     37  C   LIG     1      13.016   7.391   3.180 +0.00 -0.00    +0.017 A 
ATOM     38  C   LIG     1      14.150   7.795   3.978 +0.00 -0.00    +0.020 A 
ATOM     39  C   LIG     1      15.336   6.981   3.940 +0.00 -0.01    +0.116 A 
ATOM     40  N   LIG     1      15.379   5.824   3.148 +0.00 +0.02    -0.272 NA
ATOM     41  C   LIG     1      14.303   5.409   2.371 +0.00 -0.01    +0.130 A 
ENDBRANCH  32  36
ENDBRANCH  28  30
ENDBRANCH   1  28
TORSDOF 7
TER
ENDMDL
