USER    Estimated Free Energy of Binding    =   +1.11 kcal/mol  [=(1)+(2)+(3)-(4)]
REMARK  7 active torsions:
REMARK  status: ('A' for Active; 'I' for Inactive)
REMARK    1  A    between atoms: C_1  and  N_2 
REMARK    2  A    between atoms: N_2  and  C_16 
REMARK    3  A    between atoms: C_10  and  N_11 
REMARK       I    between atoms: N_11  and  C_25 
REMARK    4  A    between atoms: N_13  and  C_32 
REMARK    5  A    between atoms: C_17  and  C_20 
REMARK    6  A    between atoms: C_25  and  C_26 
REMARK    7  A    between atoms: C_31  and  C_32 
ROOT
ATOM      1  C   LIG     1      13.998   0.328   3.927 +0.00 -0.00    +0.057 A 
ATOM      2  C   LIG     1      14.140  -1.133   3.963 +0.00 +0.00    -0.035 A 
ATOM      3  C   LIG     1      14.921  -1.764   2.938 +0.00 -0.00    +0.011 A 
ATOM      4  C   LIG     1      15.549  -0.979   1.904 +0.00 -0.00    +0.030 A 
ATOM      5  C   LIG     1      15.416   0.440   1.868 +0.00 -0.00    +0.037 A 
ATOM      6  C   LIG     1      14.624   1.085   2.904 +0.00 -0.00    +0.060 A 
ATOM      7  C   LIG     1      13.495  -2.024   5.050 +0.00 -0.00    +0.050 C 
ENDROOT
BRANCH   5   8
ATOM      8  N   LIG     1      16.081   1.157   0.809 +0.00 +0.02    -0.323 N 
ATOM      9  C   LIG     1      16.096   2.524   0.585 +0.00 -0.02    +0.256 C 
ATOM     10  O   LIG     1      15.359   3.324   1.142 +0.00 +0.02    -0.267 OA
ATOM     11  H   LIG     1      16.586   0.608   0.166 +0.00 -0.01    +0.169 HD
BRANCH   9  12
ATOM     12  C   LIG     1      17.058   3.082  -0.414 +0.00 -0.00    +0.032 A 
ATOM     13  C   LIG     1      17.946   2.207  -1.185 +0.00 -0.00    +0.017 A 
ATOM     14  C   LIG     1      18.877   2.772  -2.129 +0.00 -0.00    +0.010 A 
ATOM     15  C   LIG     1      18.924   4.221  -2.308 +0.00 +0.00    -0.033 A 
ATOM     16  C   LIG     1      18.029   5.065  -1.534 +0.00 -0.00    +0.010 A 
ATOM     17  C   LIG     1      17.116   4.515  -0.607 +0.00 -0.00    +0.017 A 
BRANCH  15  18
ATOM     18  C   LIG     1      19.901   4.913  -3.278 +0.00 -0.02    +0.273 C 
BRANCH  18  19
ATOM     19  N   LIG     1      21.020   5.698  -2.677 +0.00 +0.00    -0.064 N 
ATOM     20  C   LIG     1      20.613   7.139  -2.486 +0.00 -0.02    +0.263 C 
ATOM     21  C   LIG     1      21.772   7.980  -1.880 +0.00 -0.02    +0.262 C 
ATOM     22  N   LIG     1      22.243   7.382  -0.563 +0.00 +0.01    -0.072 N 
ATOM     23  C   LIG     1      22.675   5.925  -0.743 +0.00 -0.02    +0.262 C 
ATOM     24  C   LIG     1      23.336   8.144   0.058 +0.00 -0.02    +0.269 C 
ATOM     25  H   LIG     1      21.441   7.427   0.066 +0.00 -0.02    +0.279 HD
ATOM     26  C   LIG     1      21.489   5.104  -1.346 +0.00 -0.02    +0.263 C 
ATOM     27  H   LIG     1      21.802   5.654  -3.330 +0.00 -0.02    +0.280 HD
ENDBRANCH  18  19
ENDBRANCH  15  18
ENDBRANCH   9  12
ENDBRANCH   5   8
BRANCH   1  28
ATOM     28  N   LIG     1      13.249   0.998   4.896 +0.00 +0.01    -0.188 N 
ATOM     29  H   LIG     1      12.355   0.663   5.139 +0.00 -0.01    +0.184 HD
BRANCH  28  30
ATOM     30  C   LIG     1      13.749   2.131   5.520 +0.00 -0.05    +0.727 A 
ATOM     31  N   LIG     1      14.436   3.017   4.770 +0.00 +0.00    -0.062 NA
ATOM     32  C   LIG     1      14.976   4.162   5.311 +0.00 -0.01    +0.089 A 
ATOM     33  C   LIG     1      14.806   4.436   6.709 +0.00 -0.00    +0.053 A 
ATOM     34  C   LIG     1      14.081   3.493   7.472 +0.00 -0.01    +0.139 A 
ATOM     35  N   LIG     1      13.568   2.364   6.871 +0.00 +0.01    -0.075 NA
BRANCH  32  36
ATOM     36  C   LIG     1      15.720   5.061   4.374 +0.00 -0.00    +0.011 A 
ATOM     37  C   LIG     1      15.321   6.439   4.112 +0.00 -0.00    +0.017 A 
ATOM     38  C   LIG     1      16.075   7.265   3.198 +0.00 -0.00    +0.020 A 
ATOM     39  C   LIG     1      17.227   6.692   2.553 +0.00 -0.01    +0.116 A 
ATOM     40  N   LIG     1      17.603   5.366   2.814 +0.00 +0.02    -0.272 NA
ATOM     41  C   LIG     1      16.897   4.547   3.690 +0.00 -0.01    +0.130 A 
ENDBRANCH  32  36
ENDBRANCH  28  30
ENDBRANCH   1  28
TORSDOF 7
TER
ENDMDL
