REMARK VINA RESULT:   -10.808      3.837     12.111
REMARK INTER + INTRA:         -16.195
REMARK INTER:                 -15.923
REMARK INTRA:                  -0.271
REMARK UNBOUND:                -0.964
REMARK  7 active torsions:
REMARK  status: ('A' for Active; 'I' for Inactive)
REMARK    1  A    between atoms: C_1  and  N_2 
REMARK    2  A    between atoms: N_2  and  C_16 
REMARK    3  A    between atoms: C_10  and  N_11 
REMARK       I    between atoms: N_11  and  C_25 
REMARK    4  A    between atoms: N_13  and  C_32 
REMARK    5  A    between atoms: C_17  and  C_20 
REMARK    6  A    between atoms: C_25  and  C_26 
REMARK    7  A    between atoms: C_31  and  C_32 
ROOT
HETATM    1  C   LIG     1      18.151  48.666  18.837  1.00  0.00     0.057 A 
HETATM    2  C   LIG     1      17.158  47.593  18.965  1.00  0.00    -0.035 A 
HETATM    3  C   LIG     1      16.041  47.592  18.064  1.00  0.00     0.011 A 
HETATM    4  C   LIG     1      15.905  48.618  17.061  1.00  0.00     0.030 A 
HETATM    5  C   LIG     1      16.869  49.660  16.931  1.00  0.00     0.037 A 
HETATM    6  C   LIG     1      18.002  49.667  17.844  1.00  0.00     0.060 A 
HETATM    7  C   LIG     1      17.256  46.463  20.017  1.00  0.00     0.050 C 
ENDROOT
BRANCH   5   8
HETATM    8  N   LIG     1      16.670  50.645  15.898  1.00  0.00    -0.323 N 
HETATM    9  C   LIG     1      15.699  51.632  15.838  1.00  0.00     0.256 C 
HETATM   10  O   LIG     1      14.718  51.682  16.566  1.00  0.00    -0.267 OA
HETATM   11  H   LIG     1      17.300  50.612  15.142  1.00  0.00     0.169 HD
BRANCH   9  12
HETATM   12  C   LIG     1      15.830  52.712  14.813  1.00  0.00     0.032 A 
HETATM   13  C   LIG     1      14.791  53.732  14.648  1.00  0.00     0.017 A 
HETATM   14  C   LIG     1      14.934  54.753  13.640  1.00  0.00     0.010 A 
HETATM   15  C   LIG     1      16.123  54.759  12.790  1.00  0.00    -0.033 A 
HETATM   16  C   LIG     1      17.140  53.738  12.980  1.00  0.00     0.010 A 
HETATM   17  C   LIG     1      17.003  52.736  13.966  1.00  0.00     0.017 A 
BRANCH  15  18
HETATM   18  C   LIG     1      16.348  55.797  11.675  1.00  0.00     0.273 C 
BRANCH  18  19
HETATM   19  N   LIG     1      15.718  57.139  11.853  1.00  0.00    -0.064 N 
HETATM   20  C   LIG     1      14.221  57.007  11.996  1.00  0.00     0.263 C 
HETATM   21  C   LIG     1      13.543  58.396  12.161  1.00  0.00     0.262 C 
HETATM   22  N   LIG     1      14.126  59.146  13.350  1.00  0.00    -0.072 N 
HETATM   23  C   LIG     1      15.642  59.302  13.212  1.00  0.00     0.262 C 
HETATM   24  C   LIG     1      13.513  60.466  13.556  1.00  0.00     0.269 C 
HETATM   25  H   LIG     1      13.913  58.576  14.169  1.00  0.00     0.279 HD
HETATM   26  C   LIG     1      16.297  57.892  13.054  1.00  0.00     0.263 C 
HETATM   27  H   LIG     1      15.928  57.683  11.016  1.00  0.00     0.280 HD
ENDBRANCH  18  19
ENDBRANCH  15  18
ENDBRANCH   9  12
ENDBRANCH   5   8
BRANCH   1  28
HETATM   28  N   LIG     1      19.258  48.722  19.687  1.00  0.00    -0.188 N 
HETATM   29  H   LIG     1      19.133  48.966  20.633  1.00  0.00     0.184 HD
BRANCH  28  30
HETATM   30  C   LIG     1      20.529  48.438  19.214  1.00  0.00     0.727 A 
HETATM   31  N   LIG     1      21.343  49.474  18.920  1.00  0.00    -0.062 NA
HETATM   32  C   LIG     1      22.617  49.281  18.434  1.00  0.00     0.089 A 
HETATM   33  C   LIG     1      23.108  47.948  18.235  1.00  0.00     0.053 A 
HETATM   34  C   LIG     1      22.237  46.881  18.552  1.00  0.00     0.139 A 
HETATM   35  N   LIG     1      20.971  47.141  19.032  1.00  0.00    -0.075 NA
BRANCH  32  36
HETATM   36  C   LIG     1      23.417  50.512  18.142  1.00  0.00     0.011 A 
HETATM   37  C   LIG     1      24.341  50.609  17.019  1.00  0.00     0.017 A 
HETATM   38  C   LIG     1      25.089  51.821  16.781  1.00  0.00     0.020 A 
HETATM   39  C   LIG     1      24.900  52.928  17.681  1.00  0.00     0.116 A 
HETATM   40  N   LIG     1      24.007  52.824  18.758  1.00  0.00    -0.272 NA
HETATM   41  C   LIG     1      23.272  51.670  19.012  1.00  0.00     0.130 A 
ENDBRANCH  32  36
ENDBRANCH  28  30
ENDBRANCH   1  28
TORSDOF 7
ENDMDL
