REMARK VINA RESULT:    -6.993      3.814     12.247
REMARK INTER + INTRA:         -10.836
REMARK INTER:                 -10.870
REMARK INTRA:                   0.034
REMARK UNBOUND:                -0.982
REMARK  7 active torsions:
REMARK  status: ('A' for Active; 'I' for Inactive)
REMARK    1  A    between atoms: C_1  and  N_2 
REMARK    2  A    between atoms: N_2  and  C_16 
REMARK    3  A    between atoms: C_10  and  N_11 
REMARK       I    between atoms: N_11  and  C_25 
REMARK    4  A    between atoms: N_13  and  C_32 
REMARK    5  A    between atoms: C_17  and  C_20 
REMARK    6  A    between atoms: C_25  and  C_26 
REMARK    7  A    between atoms: C_31  and  C_32 
ROOT
HETATM    1  C   LIG     1      18.228  48.711  18.954  1.00  0.00     0.057 A 
HETATM    2  C   LIG     1      17.221  47.650  19.086  1.00  0.00    -0.035 A 
HETATM    3  C   LIG     1      16.111  47.653  18.177  1.00  0.00     0.011 A 
HETATM    4  C   LIG     1      15.993  48.670  17.162  1.00  0.00     0.030 A 
HETATM    5  C   LIG     1      16.971  49.699  17.029  1.00  0.00     0.037 A 
HETATM    6  C   LIG     1      18.097  49.703  17.949  1.00  0.00     0.060 A 
HETATM    7  C   LIG     1      17.300  46.531  20.150  1.00  0.00     0.050 C 
ENDROOT
BRANCH   5   8
HETATM    8  N   LIG     1      16.789  50.677  15.984  1.00  0.00    -0.323 N 
HETATM    9  C   LIG     1      15.805  51.646  15.887  1.00  0.00     0.256 C 
HETATM   10  O   LIG     1      14.799  51.683  16.580  1.00  0.00    -0.267 OA
HETATM   11  H   LIG     1      17.445  50.651  15.251  1.00  0.00     0.169 HD
BRANCH   9  12
HETATM   12  C   LIG     1      15.952  52.724  14.861  1.00  0.00     0.032 A 
HETATM   13  C   LIG     1      14.851  53.643  14.562  1.00  0.00     0.017 A 
HETATM   14  C   LIG     1      15.013  54.662  13.556  1.00  0.00     0.010 A 
HETATM   15  C   LIG     1      16.284  54.768  12.842  1.00  0.00    -0.033 A 
HETATM   16  C   LIG     1      17.361  53.846  13.162  1.00  0.00     0.010 A 
HETATM   17  C   LIG     1      17.205  52.845  14.147  1.00  0.00     0.017 A 
BRANCH  15  18
HETATM   18  C   LIG     1      16.539  55.812  11.738  1.00  0.00     0.273 C 
BRANCH  18  19
HETATM   19  N   LIG     1      15.825  57.119  11.855  1.00  0.00    -0.064 N 
HETATM   20  C   LIG     1      14.340  56.901  12.011  1.00  0.00     0.263 C 
HETATM   21  C   LIG     1      13.577  58.250  12.113  1.00  0.00     0.262 C 
HETATM   22  N   LIG     1      14.114  59.091  13.263  1.00  0.00    -0.072 N 
HETATM   23  C   LIG     1      15.616  59.335  13.110  1.00  0.00     0.262 C 
HETATM   24  C   LIG     1      13.420  60.378  13.410  1.00  0.00     0.269 C 
HETATM   25  H   LIG     1      13.938  58.549  14.109  1.00  0.00     0.279 HD
HETATM   26  C   LIG     1      16.358  57.962  13.017  1.00  0.00     0.263 C 
HETATM   27  H   LIG     1      16.000  57.634  10.992  1.00  0.00     0.280 HD
ENDBRANCH  18  19
ENDBRANCH  15  18
ENDBRANCH   9  12
ENDBRANCH   5   8
BRANCH   1  28
HETATM   28  N   LIG     1      19.329  48.763  19.810  1.00  0.00    -0.188 N 
HETATM   29  H   LIG     1      19.199  49.002  20.757  1.00  0.00     0.184 HD
BRANCH  28  30
HETATM   30  C   LIG     1      20.604  48.481  19.343  1.00  0.00     0.727 A 
HETATM   31  N   LIG     1      21.393  49.517  18.990  1.00  0.00    -0.062 NA
HETATM   32  C   LIG     1      22.668  49.326  18.506  1.00  0.00     0.089 A 
HETATM   33  C   LIG     1      23.186  47.995  18.373  1.00  0.00     0.053 A 
HETATM   34  C   LIG     1      22.341  46.928  18.752  1.00  0.00     0.139 A 
HETATM   35  N   LIG     1      21.073  47.186  19.226  1.00  0.00    -0.075 NA
BRANCH  32  36
HETATM   36  C   LIG     1      23.440  50.557  18.144  1.00  0.00     0.011 A 
HETATM   37  C   LIG     1      24.253  50.656  16.938  1.00  0.00     0.017 A 
HETATM   38  C   LIG     1      24.978  51.868  16.635  1.00  0.00     0.020 A 
HETATM   39  C   LIG     1      24.878  52.971  17.554  1.00  0.00     0.116 A 
HETATM   40  N   LIG     1      24.091  52.865  18.710  1.00  0.00    -0.272 NA
HETATM   41  C   LIG     1      23.381  51.711  19.028  1.00  0.00     0.130 A 
ENDBRANCH  32  36
ENDBRANCH  28  30
ENDBRANCH   1  28
TORSDOF 7
ENDMDL
