USER    Estimated Free Energy of Binding    =   +1.11 kcal/mol  [=(1)+(2)+(3)-(4)]
REMARK  7 active torsions:
REMARK  status: ('A' for Active; 'I' for Inactive)
REMARK    1  A    between atoms: C_1  and  N_2 
REMARK    2  A    between atoms: N_2  and  C_16 
REMARK    3  A    between atoms: C_10  and  N_11 
REMARK       I    between atoms: N_11  and  C_25 
REMARK    4  A    between atoms: N_13  and  C_32 
REMARK    5  A    between atoms: C_17  and  C_20 
REMARK    6  A    between atoms: C_25  and  C_26 
REMARK    7  A    between atoms: C_31  and  C_32 
ROOT
ATOM      1  C   LIG     1      15.306  -1.442  -1.549 +0.00 -0.00    +0.057 A 
ATOM      2  C   LIG     1      13.848  -1.530  -1.697 +0.00 +0.00    -0.035 A 
ATOM      3  C   LIG     1      13.027  -1.048  -0.623 +0.00 -0.00    +0.011 A 
ATOM      4  C   LIG     1      13.624  -0.492   0.566 +0.00 -0.00    +0.030 A 
ATOM      5  C   LIG     1      15.039  -0.402   0.712 +0.00 -0.00    +0.037 A 
ATOM      6  C   LIG     1      15.876  -0.891  -0.373 +0.00 -0.00    +0.060 A 
ATOM      7  C   LIG     1      13.154  -2.110  -2.951 +0.00 -0.00    +0.050 C 
ENDROOT
BRANCH   5   8
ATOM      8  N   LIG     1      15.561   0.175   1.926 +0.00 +0.02    -0.323 N 
ATOM      9  C   LIG     1      16.854   0.603   2.178 +0.00 -0.02    +0.256 C 
ATOM     10  O   LIG     1      17.815   0.357   1.464 +0.00 +0.02    -0.267 OA
ATOM     11  H   LIG     1      14.919   0.276   2.666 +0.00 -0.01    +0.169 HD
BRANCH   9  12
ATOM     12  C   LIG     1      17.120   1.409   3.408 +0.00 -0.00    +0.032 A 
ATOM     13  C   LIG     1      16.026   2.007   4.177 +0.00 -0.00    +0.017 A 
ATOM     14  C   LIG     1      16.312   2.794   5.350 +0.00 -0.00    +0.010 A 
ATOM     15  C   LIG     1      17.700   2.987   5.762 +0.00 +0.00    -0.033 A 
ATOM     16  C   LIG     1      18.766   2.378   4.984 +0.00 -0.00    +0.010 A 
ATOM     17  C   LIG     1      18.490   1.607   3.833 +0.00 -0.00    +0.017 A 
BRANCH  15  18
ATOM     18  C   LIG     1      18.100   3.829   6.988 +0.00 -0.02    +0.273 C 
BRANCH  18  19
ATOM     19  N   LIG     1      18.781   5.133   6.730 +0.00 +0.00    -0.064 N 
ATOM     20  C   LIG     1      20.279   4.954   6.713 +0.00 -0.02    +0.263 C 
ATOM     21  C   LIG     1      21.009   6.304   6.466 +0.00 -0.02    +0.262 C 
ATOM     22  N   LIG     1      20.535   6.946   5.170 +0.00 +0.01    -0.072 N 
ATOM     23  C   LIG     1      19.019   7.150   5.179 +0.00 -0.02    +0.262 C 
ATOM     24  C   LIG     1      21.200   8.225   4.883 +0.00 -0.02    +0.269 C 
ATOM     25  H   LIG     1      20.790   6.294   4.427 +0.00 -0.02    +0.279 HD
ATOM     26  C   LIG     1      18.313   5.776   5.422 +0.00 -0.02    +0.263 C 
ATOM     27  H   LIG     1      18.527   5.761   7.493 +0.00 -0.02    +0.280 HD
ENDBRANCH  18  19
ENDBRANCH  15  18
ENDBRANCH   9  12
ENDBRANCH   5   8
BRANCH   1  28
ATOM     28  N   LIG     1      16.157  -1.896  -2.559 +0.00 +0.01    -0.188 N 
ATOM     29  H   LIG     1      16.012  -2.787  -2.953 +0.00 -0.01    +0.184 HD
BRANCH  28  30
ATOM     30  C   LIG     1      17.203  -1.107  -3.012 +0.00 -0.05    +0.727 A 
ATOM     31  N   LIG     1      17.856  -0.342  -2.113 +0.00 +0.00    -0.062 NA
ATOM     32  C   LIG     1      18.899   0.479  -2.480 +0.00 -0.01    +0.089 A 
ATOM     33  C   LIG     1      19.316   0.529  -3.852 +0.00 -0.00    +0.053 A 
ATOM     34  C   LIG     1      18.617  -0.284  -4.773 +0.00 -0.01    +0.139 A 
ATOM     35  N   LIG     1      17.579  -1.082  -4.342 +0.00 +0.01    -0.075 NA
BRANCH  32  36
ATOM     36  C   LIG     1      19.537   1.282  -1.389 +0.00 -0.00    +0.011 A 
ATOM     37  C   LIG     1      20.899   1.048  -0.926 +0.00 -0.00    +0.017 A 
ATOM     38  C   LIG     1      21.468   1.852   0.130 +0.00 -0.00    +0.020 A 
ATOM     39  C   LIG     1      20.655   2.886   0.714 +0.00 -0.01    +0.116 A 
ATOM     40  N   LIG     1      19.346   3.104   0.259 +0.00 +0.02    -0.272 NA
ATOM     41  C   LIG     1      18.772   2.347  -0.758 +0.00 -0.01    +0.130 A 
ENDBRANCH  32  36
ENDBRANCH  28  30
ENDBRANCH   1  28
TORSDOF 7
TER
ENDMDL
