REMARK VINA RESULT:    -6.818      1.619     13.547
REMARK INTER + INTRA:         -10.590
REMARK INTER:                  -9.634
REMARK INTRA:                  -0.956
REMARK UNBOUND:                -0.982
REMARK  7 active torsions:
REMARK  status: ('A' for Active; 'I' for Inactive)
REMARK    1  A    between atoms: C_1  and  N_2 
REMARK    2  A    between atoms: N_2  and  C_16 
REMARK    3  A    between atoms: C_10  and  N_11 
REMARK       I    between atoms: N_11  and  C_25 
REMARK    4  A    between atoms: N_13  and  C_32 
REMARK    5  A    between atoms: C_17  and  C_20 
REMARK    6  A    between atoms: C_25  and  C_26 
REMARK    7  A    between atoms: C_31  and  C_32 
ROOT
HETATM    1  C   LIG     1      16.964  48.667  17.535  1.00  0.00     0.057 A 
HETATM    2  C   LIG     1      15.653  48.386  18.134  1.00  0.00    -0.035 A 
HETATM    3  C   LIG     1      14.593  49.328  17.916  1.00  0.00     0.011 A 
HETATM    4  C   LIG     1      14.813  50.515  17.129  1.00  0.00     0.030 A 
HETATM    5  C   LIG     1      16.084  50.789  16.543  1.00  0.00     0.037 A 
HETATM    6  C   LIG     1      17.163  49.839  16.762  1.00  0.00     0.060 A 
HETATM    7  C   LIG     1      15.358  47.127  18.982  1.00  0.00     0.050 C 
ENDROOT
BRANCH   5   8
HETATM    8  N   LIG     1      16.225  51.992  15.760  1.00  0.00    -0.323 N 
HETATM    9  C   LIG     1      15.757  52.234  14.479  1.00  0.00     0.256 C 
HETATM   10  O   LIG     1      15.328  51.373  13.725  1.00  0.00    -0.267 OA
HETATM   11  H   LIG     1      16.714  52.731  16.189  1.00  0.00     0.169 HD
BRANCH   9  12
HETATM   12  C   LIG     1      15.783  53.633  13.954  1.00  0.00     0.032 A 
HETATM   13  C   LIG     1      17.039  54.377  13.834  1.00  0.00     0.017 A 
HETATM   14  C   LIG     1      17.034  55.732  13.340  1.00  0.00     0.010 A 
HETATM   15  C   LIG     1      15.766  56.350  12.961  1.00  0.00    -0.033 A 
HETATM   16  C   LIG     1      14.535  55.587  13.085  1.00  0.00     0.010 A 
HETATM   17  C   LIG     1      14.536  54.260  13.569  1.00  0.00     0.017 A 
BRANCH  15  18
HETATM   18  C   LIG     1      15.663  57.797  12.444  1.00  0.00     0.273 C 
BRANCH  18  19
HETATM   19  N   LIG     1      14.354  58.495  12.620  1.00  0.00    -0.064 N 
HETATM   20  C   LIG     1      14.568  59.915  13.084  1.00  0.00     0.263 C 
HETATM   21  C   LIG     1      13.217  60.653  13.294  1.00  0.00     0.262 C 
HETATM   22  N   LIG     1      12.384  60.630  12.020  1.00  0.00    -0.072 N 
HETATM   23  C   LIG     1      12.144  59.195  11.545  1.00  0.00     0.262 C 
HETATM   24  C   LIG     1      11.095  61.322  12.161  1.00  0.00     0.269 C 
HETATM   25  H   LIG     1      12.930  61.136  11.322  1.00  0.00     0.279 HD
HETATM   26  C   LIG     1      13.519  58.481  11.337  1.00  0.00     0.263 C 
HETATM   27  H   LIG     1      13.835  57.984  13.334  1.00  0.00     0.280 HD
ENDBRANCH  18  19
ENDBRANCH  15  18
ENDBRANCH   9  12
ENDBRANCH   5   8
BRANCH   1  28
HETATM   28  N   LIG     1      18.035  47.789  17.713  1.00  0.00    -0.188 N 
HETATM   29  H   LIG     1      18.164  47.044  17.082  1.00  0.00     0.184 HD
BRANCH  28  30
HETATM   30  C   LIG     1      18.919  47.955  18.768  1.00  0.00     0.727 A 
HETATM   31  N   LIG     1      18.853  47.082  19.794  1.00  0.00    -0.062 NA
HETATM   32  C   LIG     1      19.686  47.181  20.886  1.00  0.00     0.089 A 
HETATM   33  C   LIG     1      20.659  48.233  20.946  1.00  0.00     0.053 A 
HETATM   34  C   LIG     1      20.709  49.133  19.858  1.00  0.00     0.139 A 
HETATM   35  N   LIG     1      19.845  48.983  18.795  1.00  0.00    -0.075 NA
BRANCH  32  36
HETATM   36  C   LIG     1      19.509  46.153  21.960  1.00  0.00     0.011 A 
HETATM   37  C   LIG     1      18.849  44.874  21.732  1.00  0.00     0.017 A 
HETATM   38  C   LIG     1      18.705  43.916  22.804  1.00  0.00     0.020 A 
HETATM   39  C   LIG     1      19.226  44.259  24.100  1.00  0.00     0.116 A 
HETATM   40  N   LIG     1      19.861  45.493  24.308  1.00  0.00    -0.272 NA
HETATM   41  C   LIG     1      20.016  46.434  23.295  1.00  0.00     0.130 A 
ENDBRANCH  32  36
ENDBRANCH  28  30
ENDBRANCH   1  28
TORSDOF 7
ENDMDL
