REMARK VINA RESULT:   -10.939      3.079     12.347
REMARK INTER + INTRA:         -16.380
REMARK INTER:                 -15.452
REMARK INTRA:                  -0.928
REMARK UNBOUND:                -0.964
REMARK  7 active torsions:
REMARK  status: ('A' for Active; 'I' for Inactive)
REMARK    1  A    between atoms: C_1  and  N_2 
REMARK    2  A    between atoms: N_2  and  C_16 
REMARK    3  A    between atoms: C_10  and  N_11 
REMARK       I    between atoms: N_11  and  C_25 
REMARK    4  A    between atoms: N_13  and  C_32 
REMARK    5  A    between atoms: C_17  and  C_20 
REMARK    6  A    between atoms: C_25  and  C_26 
REMARK    7  A    between atoms: C_31  and  C_32 
ROOT
HETATM    1  C   LIG     1      16.908  48.737  17.543  1.00  0.00     0.057 A 
HETATM    2  C   LIG     1      15.587  48.437  18.107  1.00  0.00    -0.035 A 
HETATM    3  C   LIG     1      14.518  49.361  17.858  1.00  0.00     0.011 A 
HETATM    4  C   LIG     1      14.741  50.549  17.071  1.00  0.00     0.030 A 
HETATM    5  C   LIG     1      16.022  50.840  16.518  1.00  0.00     0.037 A 
HETATM    6  C   LIG     1      17.110  49.909  16.770  1.00  0.00     0.060 A 
HETATM    7  C   LIG     1      15.288  47.177  18.953  1.00  0.00     0.050 C 
ENDROOT
BRANCH   5   8
HETATM    8  N   LIG     1      16.165  52.042  15.734  1.00  0.00    -0.323 N 
HETATM    9  C   LIG     1      15.684  52.290  14.459  1.00  0.00     0.256 C 
HETATM   10  O   LIG     1      15.238  51.433  13.710  1.00  0.00    -0.267 OA
HETATM   11  H   LIG     1      16.666  52.777  16.158  1.00  0.00     0.169 HD
BRANCH   9  12
HETATM   12  C   LIG     1      15.717  53.689  13.934  1.00  0.00     0.032 A 
HETATM   13  C   LIG     1      16.971  54.441  13.853  1.00  0.00     0.017 A 
HETATM   14  C   LIG     1      16.972  55.795  13.359  1.00  0.00     0.010 A 
HETATM   15  C   LIG     1      15.713  56.405  12.940  1.00  0.00    -0.033 A 
HETATM   16  C   LIG     1      14.483  55.635  13.026  1.00  0.00     0.010 A 
HETATM   17  C   LIG     1      14.479  54.308  13.511  1.00  0.00     0.017 A 
BRANCH  15  18
HETATM   18  C   LIG     1      15.617  57.852  12.419  1.00  0.00     0.273 C 
BRANCH  18  19
HETATM   19  N   LIG     1      14.339  58.584  12.668  1.00  0.00    -0.064 N 
HETATM   20  C   LIG     1      14.617  59.995  13.126  1.00  0.00     0.263 C 
HETATM   21  C   LIG     1      13.299  60.769  13.411  1.00  0.00     0.262 C 
HETATM   22  N   LIG     1      12.400  60.776  12.183  1.00  0.00    -0.072 N 
HETATM   23  C   LIG     1      12.095  59.352  11.715  1.00  0.00     0.262 C 
HETATM   24  C   LIG     1      11.140  61.503  12.395  1.00  0.00     0.269 C 
HETATM   25  H   LIG     1      12.922  61.271  11.459  1.00  0.00     0.279 HD
HETATM   26  C   LIG     1      13.437  58.601  11.431  1.00  0.00     0.263 C 
HETATM   27  H   LIG     1      13.844  58.083  13.405  1.00  0.00     0.280 HD
ENDBRANCH  18  19
ENDBRANCH  15  18
ENDBRANCH   9  12
ENDBRANCH   5   8
BRANCH   1  28
HETATM   28  N   LIG     1      17.988  47.877  17.753  1.00  0.00    -0.188 N 
HETATM   29  H   LIG     1      18.052  47.040  17.238  1.00  0.00     0.184 HD
BRANCH  28  30
HETATM   30  C   LIG     1      18.971  48.187  18.680  1.00  0.00     0.727 A 
HETATM   31  N   LIG     1      19.953  49.033  18.304  1.00  0.00    -0.062 NA
HETATM   32  C   LIG     1      20.974  49.386  19.158  1.00  0.00     0.089 A 
HETATM   33  C   LIG     1      21.004  48.851  20.489  1.00  0.00     0.053 A 
HETATM   34  C   LIG     1      19.964  47.970  20.858  1.00  0.00     0.139 A 
HETATM   35  N   LIG     1      18.972  47.653  19.955  1.00  0.00    -0.075 NA
BRANCH  32  36
HETATM   36  C   LIG     1      22.005  50.328  18.619  1.00  0.00     0.011 A 
HETATM   37  C   LIG     1      23.281  49.879  18.076  1.00  0.00     0.017 A 
HETATM   38  C   LIG     1      24.242  50.830  17.567  1.00  0.00     0.020 A 
HETATM   39  C   LIG     1      23.907  52.229  17.612  1.00  0.00     0.116 A 
HETATM   40  N   LIG     1      22.675  52.649  18.135  1.00  0.00    -0.272 NA
HETATM   41  C   LIG     1      21.729  51.757  18.631  1.00  0.00     0.130 A 
ENDBRANCH  32  36
ENDBRANCH  28  30
ENDBRANCH   1  28
TORSDOF 7
ENDMDL
