USER    Estimated Free Energy of Binding    =   +1.10 kcal/mol  [=(1)+(2)+(3)-(4)]
REMARK  7 active torsions:
REMARK  status: ('A' for Active; 'I' for Inactive)
REMARK    1  A    between atoms: C_1  and  N_2 
REMARK    2  A    between atoms: N_2  and  C_16 
REMARK    3  A    between atoms: C_10  and  N_11 
REMARK       I    between atoms: N_11  and  C_25 
REMARK    4  A    between atoms: N_13  and  C_32 
REMARK    5  A    between atoms: C_17  and  C_20 
REMARK    6  A    between atoms: C_25  and  C_26 
REMARK    7  A    between atoms: C_31  and  C_32 
ROOT
ATOM      1  C   UNL     1      15.188  -0.572  -1.535 +0.00 -0.00    +0.057 A 
ATOM      2  C   UNL     1      15.598  -1.339  -2.717 +0.00 +0.00    -0.035 A 
ATOM      3  C   UNL     1      16.779  -0.922  -3.419 +0.00 -0.00    +0.011 A 
ATOM      4  C   UNL     1      17.538   0.218  -2.969 +0.00 -0.00    +0.030 A 
ATOM      5  C   UNL     1      17.144   0.963  -1.819 +0.00 -0.00    +0.037 A 
ATOM      6  C   UNL     1      15.947   0.546  -1.105 +0.00 -0.00    +0.060 A 
ATOM      7  C   UNL     1      14.827  -2.572  -3.242 +0.00 -0.00    +0.050 C 
ENDROOT
BRANCH   5   8
ATOM      8  N   UNL     1      17.959   2.085  -1.425 +0.00 +0.02    -0.323 N 
ATOM      9  C   UNL     1      17.556   3.252  -0.799 +0.00 -0.02    +0.256 C 
ATOM     10  O   UNL     1      16.392   3.603  -0.674 +0.00 +0.02    -0.267 OA
ATOM     11  H   UNL     1      18.921   2.012  -1.626 +0.00 -0.01    +0.169 HD
BRANCH   9  12
ATOM     12  C   UNL     1      18.596   4.171  -0.243 +0.00 -0.00    +0.032 A 
ATOM     13  C   UNL     1      20.022   3.845  -0.331 +0.00 -0.00    +0.017 A 
ATOM     14  C   UNL     1      21.003   4.741   0.228 +0.00 -0.00    +0.010 A 
ATOM     15  C   UNL     1      20.562   5.972   0.878 +0.00 +0.00    -0.033 A 
ATOM     16  C   UNL     1      19.141   6.273   0.946 +0.00 -0.00    +0.010 A 
ATOM     17  C   UNL     1      18.176   5.397   0.401 +0.00 -0.00    +0.017 A 
BRANCH  15  18
ATOM     18  C   UNL     1      21.538   6.976   1.521 +0.00 -0.02    +0.273 C 
BRANCH  18  19
ATOM     19  N   UNL     1      21.567   7.042   3.012 +0.00 +0.01    -0.064 N 
ATOM     20  C   UNL     1      20.578   8.064   3.517 +0.00 -0.02    +0.263 C 
ATOM     21  C   UNL     1      20.607   8.164   5.068 +0.00 -0.02    +0.262 C 
ATOM     22  N   UNL     1      20.339   6.807   5.703 +0.00 +0.01    -0.072 N 
ATOM     23  C   UNL     1      21.345   5.763   5.214 +0.00 -0.02    +0.262 C 
ATOM     24  C   UNL     1      20.348   6.847   7.172 +0.00 -0.02    +0.269 C 
ATOM     25  H   UNL     1      19.399   6.543   5.408 +0.00 -0.02    +0.279 HD
ATOM     26  C   UNL     1      21.289   5.680   3.654 +0.00 -0.02    +0.263 C 
ATOM     27  H   UNL     1      22.509   7.326   3.282 +0.00 -0.02    +0.280 HD
ENDBRANCH  18  19
ENDBRANCH  15  18
ENDBRANCH   9  12
ENDBRANCH   5   8
BRANCH   1  28
ATOM     28  N   UNL     1      14.047  -0.927  -0.812 +0.00 +0.01    -0.188 N 
ATOM     29  H   UNL     1      13.854  -1.878  -0.644 +0.00 -0.01    +0.184 HD
BRANCH  28  30
ATOM     30  C   UNL     1      13.185   0.043  -0.327 +0.00 -0.05    +0.727 A 
ATOM     31  N   UNL     1      13.720   1.113   0.298 +0.00 +0.00    -0.062 NA
ATOM     32  C   UNL     1      12.935   2.117   0.819 +0.00 -0.01    +0.089 A 
ATOM     33  C   UNL     1      11.508   2.040   0.697 +0.00 -0.00    +0.053 A 
ATOM     34  C   UNL     1      10.973   0.911   0.036 +0.00 -0.01    +0.139 A 
ATOM     35  N   UNL     1      11.812  -0.062  -0.460 +0.00 +0.01    -0.075 NA
BRANCH  32  36
ATOM     36  C   UNL     1      13.650   3.246   1.493 +0.00 -0.00    +0.011 A 
ATOM     37  C   UNL     1      13.115   4.601   1.552 +0.00 -0.00    +0.017 A 
ATOM     38  C   UNL     1      13.846   5.655   2.216 +0.00 -0.00    +0.020 A 
ATOM     39  C   UNL     1      15.115   5.333   2.815 +0.00 -0.01    +0.116 A 
ATOM     40  N   UNL     1      15.619   4.026   2.753 +0.00 +0.02    -0.272 NA
ATOM     41  C   UNL     1      14.937   2.990   2.122 +0.00 -0.01    +0.130 A 
ENDBRANCH  32  36
ENDBRANCH  28  30
ENDBRANCH   1  28
TORSDOF 7
TER
ENDMDL
