REMARK VINA RESULT:   -10.777      3.882     12.210
REMARK INTER + INTRA:         -16.183
REMARK INTER:                 -15.891
REMARK INTRA:                  -0.292
REMARK UNBOUND:                -0.996
REMARK  7 active torsions:
REMARK  status: ('A' for Active; 'I' for Inactive)
REMARK    1  A    between atoms: C_1  and  N_2 
REMARK    2  A    between atoms: N_2  and  C_16 
REMARK    3  A    between atoms: C_10  and  N_11 
REMARK       I    between atoms: N_11  and  C_25 
REMARK    4  A    between atoms: N_13  and  C_32 
REMARK    5  A    between atoms: C_17  and  C_20 
REMARK    6  A    between atoms: C_25  and  C_26 
REMARK    7  A    between atoms: C_31  and  C_32 
ROOT
HETATM    1  C   UNL     1      18.184  48.681  18.816  1.00  0.00     0.057 A 
HETATM    2  C   UNL     1      17.192  47.607  18.949  1.00  0.00    -0.035 A 
HETATM    3  C   UNL     1      16.073  47.604  18.051  1.00  0.00     0.011 A 
HETATM    4  C   UNL     1      15.932  48.629  17.046  1.00  0.00     0.030 A 
HETATM    5  C   UNL     1      16.895  49.671  16.913  1.00  0.00     0.037 A 
HETATM    6  C   UNL     1      18.031  49.681  17.822  1.00  0.00     0.060 A 
HETATM    7  C   UNL     1      17.295  46.480  20.002  1.00  0.00     0.050 C 
ENDROOT
BRANCH   5   8
HETATM    8  N   UNL     1      16.692  50.655  15.879  1.00  0.00    -0.323 N 
HETATM    9  C   UNL     1      15.713  51.633  15.815  1.00  0.00     0.256 C 
HETATM   10  O   UNL     1      14.728  51.673  16.537  1.00  0.00    -0.267 OA
HETATM   11  H   UNL     1      17.326  50.628  15.126  1.00  0.00     0.169 HD
BRANCH   9  12
HETATM   12  C   UNL     1      15.838  52.714  14.791  1.00  0.00     0.032 A 
HETATM   13  C   UNL     1      14.783  53.714  14.608  1.00  0.00     0.017 A 
HETATM   14  C   UNL     1      14.921  54.736  13.601  1.00  0.00     0.010 A 
HETATM   15  C   UNL     1      16.123  54.764  12.769  1.00  0.00    -0.033 A 
HETATM   16  C   UNL     1      17.156  53.764  12.976  1.00  0.00     0.010 A 
HETATM   17  C   UNL     1      17.023  52.759  13.961  1.00  0.00     0.017 A 
BRANCH  15  18
HETATM   18  C   UNL     1      16.345  55.806  11.657  1.00  0.00     0.273 C 
BRANCH  18  19
HETATM   19  N   UNL     1      15.719  57.149  11.842  1.00  0.00    -0.064 N 
HETATM   20  C   UNL     1      14.223  57.022  11.984  1.00  0.00     0.263 C 
HETATM   21  C   UNL     1      13.549  58.412  12.157  1.00  0.00     0.262 C 
HETATM   22  N   UNL     1      14.135  59.152  13.351  1.00  0.00    -0.072 N 
HETATM   23  C   UNL     1      15.651  59.304  13.214  1.00  0.00     0.262 C 
HETATM   24  C   UNL     1      13.526  60.473  13.565  1.00  0.00     0.269 C 
HETATM   25  H   UNL     1      13.919  58.579  14.167  1.00  0.00     0.279 HD
HETATM   26  C   UNL     1      16.301  57.892  13.048  1.00  0.00     0.263 C 
HETATM   27  H   UNL     1      15.932  57.697  11.009  1.00  0.00     0.280 HD
ENDBRANCH  18  19
ENDBRANCH  15  18
ENDBRANCH   9  12
ENDBRANCH   5   8
BRANCH   1  28
HETATM   28  N   UNL     1      19.293  48.740  19.663  1.00  0.00    -0.188 N 
HETATM   29  H   UNL     1      19.177  49.024  20.598  1.00  0.00     0.184 HD
BRANCH  28  30
HETATM   30  C   UNL     1      20.556  48.402  19.200  1.00  0.00     0.727 A 
HETATM   31  N   UNL     1      21.422  49.402  18.935  1.00  0.00    -0.062 NA
HETATM   32  C   UNL     1      22.692  49.155  18.462  1.00  0.00     0.089 A 
HETATM   33  C   UNL     1      23.120  47.803  18.245  1.00  0.00     0.053 A 
HETATM   34  C   UNL     1      22.194  46.775  18.532  1.00  0.00     0.139 A 
HETATM   35  N   UNL     1      20.936  47.088  19.000  1.00  0.00    -0.075 NA
BRANCH  32  36
HETATM   36  C   UNL     1      23.555  50.350  18.202  1.00  0.00     0.011 A 
HETATM   37  C   UNL     1      24.252  50.565  16.940  1.00  0.00     0.017 A 
HETATM   38  C   UNL     1      25.073  51.737  16.740  1.00  0.00     0.020 A 
HETATM   39  C   UNL     1      25.186  52.683  17.818  1.00  0.00     0.116 A 
HETATM   40  N   UNL     1      24.509  52.467  19.028  1.00  0.00    -0.272 NA
HETATM   41  C   UNL     1      23.710  51.349  19.249  1.00  0.00     0.130 A 
ENDBRANCH  32  36
ENDBRANCH  28  30
ENDBRANCH   1  28
TORSDOF 7
ENDMDL
