MODEL 1
REMARK VINA RESULT:   -10.085      0.000      0.000
REMARK INTER + INTRA:         -14.574
REMARK INTER:                 -14.183
REMARK INTRA:                  -0.391
REMARK UNBOUND:                -0.362
REMARK  7 active torsions:
REMARK  status: ('A' for Active; 'I' for Inactive)
REMARK    1  A    between atoms: C_1  and  N_2 
REMARK    2  A    between atoms: N_2  and  C_16 
REMARK    3  A    between atoms: C_10  and  N_11 
REMARK       I    between atoms: N_11  and  C_25 
REMARK    4  A    between atoms: N_13  and  C_32 
REMARK    5  A    between atoms: C_17  and  C_20 
REMARK    6  A    between atoms: C_25  and  C_26 
REMARK    7  A    between atoms: C_31  and  C_32 
ROOT
HETATM    1  C   UNL     1      15.779  54.683  12.406  1.00  0.00     0.057 A 
HETATM    2  C   UNL     1      16.864  54.551  11.426  1.00  0.00    -0.035 A 
HETATM    3  C   UNL     1      17.859  53.541  11.649  1.00  0.00     0.011 A 
HETATM    4  C   UNL     1      17.789  52.682  12.804  1.00  0.00     0.030 A 
HETATM    5  C   UNL     1      16.735  52.805  13.756  1.00  0.00     0.037 A 
HETATM    6  C   UNL     1      15.724  53.828  13.536  1.00  0.00     0.060 A 
HETATM    7  C   UNL     1      16.985  55.440  10.166  1.00  0.00     0.050 C 
ENDROOT
BRANCH   5   8
HETATM    8  N   UNL     1      16.727  51.904  14.881  1.00  0.00    -0.323 N 
HETATM    9  C   UNL     1      15.731  51.733  15.829  1.00  0.00     0.256 C 
HETATM   10  O   UNL     1      14.780  52.486  15.976  1.00  0.00    -0.267 OA
HETATM   11  H   UNL     1      17.528  51.341  14.989  1.00  0.00     0.169 HD
BRANCH   9  12
HETATM   12  C   UNL     1      15.810  50.564  16.756  1.00  0.00     0.032 A 
HETATM   13  C   UNL     1      17.070  49.846  16.969  1.00  0.00     0.017 A 
HETATM   14  C   UNL     1      17.115  48.711  17.856  1.00  0.00     0.010 A 
HETATM   15  C   UNL     1      15.895  48.288  18.540  1.00  0.00    -0.033 A 
HETATM   16  C   UNL     1      14.660  49.021  18.315  1.00  0.00     0.010 A 
HETATM   17  C   UNL     1      14.612  50.133  17.445  1.00  0.00     0.017 A 
BRANCH  15  18
HETATM   18  C   UNL     1      15.845  47.075  19.488  1.00  0.00     0.273 C 
BRANCH  18  19
HETATM   19  N   UNL     1      17.084  46.760  20.260  1.00  0.00    -0.064 N 
HETATM   20  C   UNL     1      17.345  47.821  21.300  1.00  0.00     0.263 C 
HETATM   21  C   UNL     1      18.643  47.523  22.102  1.00  0.00     0.262 C 
HETATM   22  N   UNL     1      18.573  46.148  22.752  1.00  0.00    -0.072 N 
HETATM   23  C   UNL     1      18.326  45.058  21.708  1.00  0.00     0.262 C 
HETATM   24  C   UNL     1      19.776  45.818  23.531  1.00  0.00     0.269 C 
HETATM   25  H   UNL     1      17.788  46.187  23.401  1.00  0.00     0.279 HD
HETATM   26  C   UNL     1      17.013  45.381  20.922  1.00  0.00     0.263 C 
HETATM   27  H   UNL     1      17.857  46.745  19.595  1.00  0.00     0.280 HD
ENDBRANCH  18  19
ENDBRANCH  15  18
ENDBRANCH   9  12
ENDBRANCH   5   8
BRANCH   1  28
HETATM   28  N   UNL     1      14.782  55.648  12.245  1.00  0.00    -0.188 N 
HETATM   29  H   UNL     1      13.900  55.384  11.895  1.00  0.00     0.184 HD
BRANCH  28  30
HETATM   30  C   UNL     1      15.020  56.974  12.572  1.00  0.00     0.727 A 
HETATM   31  N   UNL     1      14.023  57.863  12.384  1.00  0.00    -0.062 NA
HETATM   32  C   UNL     1      14.178  59.200  12.672  1.00  0.00     0.089 A 
HETATM   33  C   UNL     1      15.429  59.675  13.192  1.00  0.00     0.053 A 
HETATM   34  C   UNL     1      16.456  58.724  13.381  1.00  0.00     0.139 A 
HETATM   35  N   UNL     1      16.238  57.399  13.070  1.00  0.00    -0.075 NA
BRANCH  32  36
HETATM   36  C   UNL     1      12.998  60.084  12.415  1.00  0.00     0.011 A 
HETATM   37  C   UNL     1      12.902  61.447  12.923  1.00  0.00     0.017 A 
HETATM   38  C   UNL     1      11.740  62.259  12.645  1.00  0.00     0.020 A 
HETATM   39  C   UNL     1      10.681  61.686  11.856  1.00  0.00     0.116 A 
HETATM   40  N   UNL     1      10.784  60.374  11.371  1.00  0.00    -0.272 NA
HETATM   41  C   UNL     1      11.892  59.569  11.622  1.00  0.00     0.130 A 
ENDBRANCH  32  36
ENDBRANCH  28  30
ENDBRANCH   1  28
TORSDOF 7
ENDMDL
MODEL 2
REMARK VINA RESULT:    -7.433      3.818     12.253
REMARK INTER + INTRA:         -10.837
REMARK INTER:                 -10.868
REMARK INTRA:                   0.030
REMARK UNBOUND:                -0.362
REMARK  7 active torsions:
REMARK  status: ('A' for Active; 'I' for Inactive)
REMARK    1  A    between atoms: C_1  and  N_2 
REMARK    2  A    between atoms: N_2  and  C_16 
REMARK    3  A    between atoms: C_10  and  N_11 
REMARK       I    between atoms: N_11  and  C_25 
REMARK    4  A    between atoms: N_13  and  C_32 
REMARK    5  A    between atoms: C_17  and  C_20 
REMARK    6  A    between atoms: C_25  and  C_26 
REMARK    7  A    between atoms: C_31  and  C_32 
ROOT
HETATM    1  C   UNL     1      18.223  48.708  18.946  1.00  0.00     0.057 A 
HETATM    2  C   UNL     1      17.212  47.651  19.077  1.00  0.00    -0.035 A 
HETATM    3  C   UNL     1      16.101  47.660  18.169  1.00  0.00     0.011 A 
HETATM    4  C   UNL     1      15.986  48.681  17.157  1.00  0.00     0.030 A 
HETATM    5  C   UNL     1      16.967  49.706  17.025  1.00  0.00     0.037 A 
HETATM    6  C   UNL     1      18.095  49.703  17.944  1.00  0.00     0.060 A 
HETATM    7  C   UNL     1      17.288  46.529  20.138  1.00  0.00     0.050 C 
ENDROOT
BRANCH   5   8
HETATM    8  N   UNL     1      16.788  50.687  15.983  1.00  0.00    -0.323 N 
HETATM    9  C   UNL     1      15.806  51.659  15.888  1.00  0.00     0.256 C 
HETATM   10  O   UNL     1      14.801  51.696  16.581  1.00  0.00    -0.267 OA
HETATM   11  H   UNL     1      17.444  50.661  15.250  1.00  0.00     0.169 HD
BRANCH   9  12
HETATM   12  C   UNL     1      15.956  52.738  14.865  1.00  0.00     0.032 A 
HETATM   13  C   UNL     1      14.843  53.633  14.536  1.00  0.00     0.017 A 
HETATM   14  C   UNL     1      15.009  54.655  13.533  1.00  0.00     0.010 A 
HETATM   15  C   UNL     1      16.295  54.789  12.853  1.00  0.00    -0.033 A 
HETATM   16  C   UNL     1      17.383  53.892  13.203  1.00  0.00     0.010 A 
HETATM   17  C   UNL     1      17.224  52.888  14.185  1.00  0.00     0.017 A 
BRANCH  15  18
HETATM   18  C   UNL     1      16.555  55.837  11.755  1.00  0.00     0.273 C 
BRANCH  18  19
HETATM   19  N   UNL     1      15.833  57.139  11.868  1.00  0.00    -0.064 N 
HETATM   20  C   UNL     1      14.349  56.912  12.020  1.00  0.00     0.263 C 
HETATM   21  C   UNL     1      13.576  58.256  12.119  1.00  0.00     0.262 C 
HETATM   22  N   UNL     1      14.104  59.102  13.269  1.00  0.00    -0.072 N 
HETATM   23  C   UNL     1      15.605  59.356  13.120  1.00  0.00     0.262 C 
HETATM   24  C   UNL     1      13.401  60.385  13.412  1.00  0.00     0.269 C 
HETATM   25  H   UNL     1      13.929  58.560  14.115  1.00  0.00     0.279 HD
HETATM   26  C   UNL     1      16.356  57.988  13.031  1.00  0.00     0.263 C 
HETATM   27  H   UNL     1      16.006  57.655  11.005  1.00  0.00     0.280 HD
ENDBRANCH  18  19
ENDBRANCH  15  18
ENDBRANCH   9  12
ENDBRANCH   5   8
BRANCH   1  28
HETATM   28  N   UNL     1      19.326  48.753  19.801  1.00  0.00    -0.188 N 
HETATM   29  H   UNL     1      19.198  48.990  20.748  1.00  0.00     0.184 HD
BRANCH  28  30
HETATM   30  C   UNL     1      20.599  48.469  19.331  1.00  0.00     0.727 A 
HETATM   31  N   UNL     1      21.389  49.503  18.973  1.00  0.00    -0.062 NA
HETATM   32  C   UNL     1      22.662  49.309  18.487  1.00  0.00     0.089 A 
HETATM   33  C   UNL     1      23.178  47.977  18.355  1.00  0.00     0.053 A 
HETATM   34  C   UNL     1      22.332  46.912  18.739  1.00  0.00     0.139 A 
HETATM   35  N   UNL     1      21.065  47.172  19.216  1.00  0.00    -0.075 NA
BRANCH  32  36
HETATM   36  C   UNL     1      23.434  50.538  18.120  1.00  0.00     0.011 A 
HETATM   37  C   UNL     1      24.254  50.629  16.918  1.00  0.00     0.017 A 
HETATM   38  C   UNL     1      24.980  51.840  16.610  1.00  0.00     0.020 A 
HETATM   39  C   UNL     1      24.874  52.949  17.521  1.00  0.00     0.116 A 
HETATM   40  N   UNL     1      24.081  52.850  18.674  1.00  0.00    -0.272 NA
HETATM   41  C   UNL     1      23.370  51.699  18.995  1.00  0.00     0.130 A 
ENDBRANCH  32  36
ENDBRANCH  28  30
ENDBRANCH   1  28
TORSDOF 7
ENDMDL
MODEL 3
REMARK VINA RESULT:    -7.347      3.063     12.413
REMARK INTER + INTRA:         -10.715
REMARK INTER:                  -9.851
REMARK INTRA:                  -0.864
REMARK UNBOUND:                -0.362
REMARK  7 active torsions:
REMARK  status: ('A' for Active; 'I' for Inactive)
REMARK    1  A    between atoms: C_1  and  N_2 
REMARK    2  A    between atoms: N_2  and  C_16 
REMARK    3  A    between atoms: C_10  and  N_11 
REMARK       I    between atoms: N_11  and  C_25 
REMARK    4  A    between atoms: N_13  and  C_32 
REMARK    5  A    between atoms: C_17  and  C_20 
REMARK    6  A    between atoms: C_25  and  C_26 
REMARK    7  A    between atoms: C_31  and  C_32 
ROOT
HETATM    1  C   UNL     1      16.984  48.679  17.713  1.00  0.00     0.057 A 
HETATM    2  C   UNL     1      15.653  48.364  18.244  1.00  0.00    -0.035 A 
HETATM    3  C   UNL     1      14.575  49.265  17.950  1.00  0.00     0.011 A 
HETATM    4  C   UNL     1      14.800  50.445  17.152  1.00  0.00     0.030 A 
HETATM    5  C   UNL     1      16.091  50.752  16.632  1.00  0.00     0.037 A 
HETATM    6  C   UNL     1      17.188  49.844  16.929  1.00  0.00     0.060 A 
HETATM    7  C   UNL     1      15.353  47.111  19.099  1.00  0.00     0.050 C 
ENDROOT
BRANCH   5   8
HETATM    8  N   UNL     1      16.235  51.945  15.835  1.00  0.00    -0.323 N 
HETATM    9  C   UNL     1      15.741  52.185  14.564  1.00  0.00     0.256 C 
HETATM   10  O   UNL     1      15.278  51.325  13.829  1.00  0.00    -0.267 OA
HETATM   11  H   UNL     1      16.748  52.679  16.245  1.00  0.00     0.169 HD
BRANCH   9  12
HETATM   12  C   UNL     1      15.780  53.578  14.025  1.00  0.00     0.032 A 
HETATM   13  C   UNL     1      17.027  54.347  13.994  1.00  0.00     0.017 A 
HETATM   14  C   UNL     1      17.033  55.695  13.485  1.00  0.00     0.010 A 
HETATM   15  C   UNL     1      15.787  56.283  13.000  1.00  0.00    -0.033 A 
HETATM   16  C   UNL     1      14.565  55.497  13.037  1.00  0.00     0.010 A 
HETATM   17  C   UNL     1      14.555  54.175  13.536  1.00  0.00     0.017 A 
BRANCH  15  18
HETATM   18  C   UNL     1      15.696  57.723  12.459  1.00  0.00     0.273 C 
BRANCH  18  19
HETATM   19  N   UNL     1      14.401  58.443  12.646  1.00  0.00    -0.064 N 
HETATM   20  C   UNL     1      14.644  59.863  13.096  1.00  0.00     0.263 C 
HETATM   21  C   UNL     1      13.307  60.624  13.316  1.00  0.00     0.262 C 
HETATM   22  N   UNL     1      12.458  60.604  12.053  1.00  0.00    -0.072 N 
HETATM   23  C   UNL     1      12.188  59.171  11.594  1.00  0.00     0.262 C 
HETATM   24  C   UNL     1      11.182  61.319  12.205  1.00  0.00     0.269 C 
HETATM   25  H   UNL     1      13.002  61.096  11.344  1.00  0.00     0.279 HD
HETATM   26  C   UNL     1      13.549  58.432  11.374  1.00  0.00     0.263 C 
HETATM   27  H   UNL     1      13.883  57.946  13.370  1.00  0.00     0.280 HD
ENDBRANCH  18  19
ENDBRANCH  15  18
ENDBRANCH   9  12
ENDBRANCH   5   8
BRANCH   1  28
HETATM   28  N   UNL     1      18.073  47.842  17.967  1.00  0.00    -0.188 N 
HETATM   29  H   UNL     1      18.150  46.985  17.488  1.00  0.00     0.184 HD
BRANCH  28  30
HETATM   30  C   UNL     1      19.046  48.205  18.886  1.00  0.00     0.727 A 
HETATM   31  N   UNL     1      20.008  49.062  18.486  1.00  0.00    -0.062 NA
HETATM   32  C   UNL     1      21.018  49.466  19.331  1.00  0.00     0.089 A 
HETATM   33  C   UNL     1      21.058  48.972  20.677  1.00  0.00     0.053 A 
HETATM   34  C   UNL     1      20.039  48.076  21.071  1.00  0.00     0.139 A 
HETATM   35  N   UNL     1      19.057  47.709  20.176  1.00  0.00    -0.075 NA
BRANCH  32  36
HETATM   36  C   UNL     1      22.027  50.416  18.765  1.00  0.00     0.011 A 
HETATM   37  C   UNL     1      23.277  49.976  18.159  1.00  0.00     0.017 A 
HETATM   38  C   UNL     1      24.217  50.935  17.626  1.00  0.00     0.020 A 
HETATM   39  C   UNL     1      23.888  52.333  17.713  1.00  0.00     0.116 A 
HETATM   40  N   UNL     1      22.681  52.745  18.298  1.00  0.00    -0.272 NA
HETATM   41  C   UNL     1      21.756  51.845  18.817  1.00  0.00     0.130 A 
ENDBRANCH  32  36
ENDBRANCH  28  30
ENDBRANCH   1  28
TORSDOF 7
ENDMDL
MODEL 4
REMARK VINA RESULT:    -7.262      1.616     13.556
REMARK INTER + INTRA:         -10.596
REMARK INTER:                  -9.633
REMARK INTRA:                  -0.963
REMARK UNBOUND:                -0.362
REMARK  7 active torsions:
REMARK  status: ('A' for Active; 'I' for Inactive)
REMARK    1  A    between atoms: C_1  and  N_2 
REMARK    2  A    between atoms: N_2  and  C_16 
REMARK    3  A    between atoms: C_10  and  N_11 
REMARK       I    between atoms: N_11  and  C_25 
REMARK    4  A    between atoms: N_13  and  C_32 
REMARK    5  A    between atoms: C_17  and  C_20 
REMARK    6  A    between atoms: C_25  and  C_26 
REMARK    7  A    between atoms: C_31  and  C_32 
ROOT
HETATM    1  C   UNL     1      16.946  48.641  17.557  1.00  0.00     0.057 A 
HETATM    2  C   UNL     1      15.636  48.369  18.162  1.00  0.00    -0.035 A 
HETATM    3  C   UNL     1      14.580  49.316  17.947  1.00  0.00     0.011 A 
HETATM    4  C   UNL     1      14.804  50.500  17.155  1.00  0.00     0.030 A 
HETATM    5  C   UNL     1      16.073  50.766  16.564  1.00  0.00     0.037 A 
HETATM    6  C   UNL     1      17.149  49.810  16.780  1.00  0.00     0.060 A 
HETATM    7  C   UNL     1      15.337  47.113  19.014  1.00  0.00     0.050 C 
ENDROOT
BRANCH   5   8
HETATM    8  N   UNL     1      16.218  51.966  15.778  1.00  0.00    -0.323 N 
HETATM    9  C   UNL     1      15.759  52.203  14.492  1.00  0.00     0.256 C 
HETATM   10  O   UNL     1      15.338  51.338  13.739  1.00  0.00    -0.267 OA
HETATM   11  H   UNL     1      16.703  52.708  16.207  1.00  0.00     0.169 HD
BRANCH   9  12
HETATM   12  C   UNL     1      15.786  53.600  13.962  1.00  0.00     0.032 A 
HETATM   13  C   UNL     1      17.046  54.335  13.819  1.00  0.00     0.017 A 
HETATM   14  C   UNL     1      17.042  55.687  13.321  1.00  0.00     0.010 A 
HETATM   15  C   UNL     1      15.772  56.314  12.960  1.00  0.00    -0.033 A 
HETATM   16  C   UNL     1      14.538  55.560  13.107  1.00  0.00     0.010 A 
HETATM   17  C   UNL     1      14.538  54.235  13.596  1.00  0.00     0.017 A 
BRANCH  15  18
HETATM   18  C   UNL     1      15.671  57.760  12.441  1.00  0.00     0.273 C 
BRANCH  18  19
HETATM   19  N   UNL     1      14.366  58.463  12.623  1.00  0.00    -0.064 N 
HETATM   20  C   UNL     1      14.588  59.880  13.091  1.00  0.00     0.263 C 
HETATM   21  C   UNL     1      13.240  60.624  13.307  1.00  0.00     0.262 C 
HETATM   22  N   UNL     1      12.403  60.608  12.036  1.00  0.00    -0.072 N 
HETATM   23  C   UNL     1      12.155  59.176  11.559  1.00  0.00     0.262 C 
HETATM   24  C   UNL     1      11.117  61.305  12.184  1.00  0.00     0.269 C 
HETATM   25  H   UNL     1      12.948  61.113  11.338  1.00  0.00     0.279 HD
HETATM   26  C   UNL     1      13.526  58.456  11.343  1.00  0.00     0.263 C 
HETATM   27  H   UNL     1      13.847  57.951  13.337  1.00  0.00     0.280 HD
ENDBRANCH  18  19
ENDBRANCH  15  18
ENDBRANCH   9  12
ENDBRANCH   5   8
BRANCH   1  28
HETATM   28  N   UNL     1      18.013  47.758  17.733  1.00  0.00    -0.188 N 
HETATM   29  H   UNL     1      18.135  47.011  17.103  1.00  0.00     0.184 HD
BRANCH  28  30
HETATM   30  C   UNL     1      18.902  47.921  18.784  1.00  0.00     0.727 A 
HETATM   31  N   UNL     1      18.835  47.051  19.813  1.00  0.00    -0.062 NA
HETATM   32  C   UNL     1      19.673  47.148  20.901  1.00  0.00     0.089 A 
HETATM   33  C   UNL     1      20.653  48.195  20.954  1.00  0.00     0.053 A 
HETATM   34  C   UNL     1      20.703  49.091  19.863  1.00  0.00     0.139 A 
HETATM   35  N   UNL     1      19.834  48.943  18.804  1.00  0.00    -0.075 NA
BRANCH  32  36
HETATM   36  C   UNL     1      19.494  46.125  21.979  1.00  0.00     0.011 A 
HETATM   37  C   UNL     1      18.844  44.840  21.752  1.00  0.00     0.017 A 
HETATM   38  C   UNL     1      18.697  43.887  22.827  1.00  0.00     0.020 A 
HETATM   39  C   UNL     1      19.206  44.240  24.126  1.00  0.00     0.116 A 
HETATM   40  N   UNL     1      19.831  45.478  24.333  1.00  0.00    -0.272 NA
HETATM   41  C   UNL     1      19.988  46.415  23.316  1.00  0.00     0.130 A 
ENDBRANCH  32  36
ENDBRANCH  28  30
ENDBRANCH   1  28
TORSDOF 7
ENDMDL
