REMARK VINA RESULT:   -12.904      0.000      0.000
REMARK INTER + INTRA:         -19.180
REMARK INTER:                 -18.763
REMARK INTRA:                  -0.417
REMARK UNBOUND:                -0.996
REMARK  7 active torsions:
REMARK  status: ('A' for Active; 'I' for Inactive)
REMARK    1  A    between atoms: C_1  and  N_2 
REMARK    2  A    between atoms: N_2  and  C_16 
REMARK    3  A    between atoms: C_10  and  N_11 
REMARK       I    between atoms: N_11  and  C_25 
REMARK    4  A    between atoms: N_13  and  C_32 
REMARK    5  A    between atoms: C_17  and  C_20 
REMARK    6  A    between atoms: C_25  and  C_26 
REMARK    7  A    between atoms: C_31  and  C_32 
ROOT
HETATM    1  C   UNL     1      15.828  54.750  12.335  1.00  0.00     0.057 A 
HETATM    2  C   UNL     1      16.938  54.628  11.384  1.00  0.00    -0.035 A 
HETATM    3  C   UNL     1      17.911  53.597  11.606  1.00  0.00     0.011 A 
HETATM    4  C   UNL     1      17.794  52.706  12.734  1.00  0.00     0.030 A 
HETATM    5  C   UNL     1      16.715  52.820  13.658  1.00  0.00     0.037 A 
HETATM    6  C   UNL     1      15.727  53.865  13.439  1.00  0.00     0.060 A 
HETATM    7  C   UNL     1      17.110  55.550  10.154  1.00  0.00     0.050 C 
ENDROOT
BRANCH   5   8
HETATM    8  N   UNL     1      16.661  51.887  14.756  1.00  0.00    -0.323 N 
HETATM    9  C   UNL     1      15.692  51.787  15.741  1.00  0.00     0.256 C 
HETATM   10  O   UNL     1      14.830  52.628  15.951  1.00  0.00    -0.267 OA
HETATM   11  H   UNL     1      17.404  51.243  14.813  1.00  0.00     0.169 HD
BRANCH   9  12
HETATM   12  C   UNL     1      15.689  50.586  16.631  1.00  0.00     0.032 A 
HETATM   13  C   UNL     1      14.505  50.224  17.414  1.00  0.00     0.017 A 
HETATM   14  C   UNL     1      14.534  49.070  18.278  1.00  0.00     0.010 A 
HETATM   15  C   UNL     1      15.752  48.269  18.361  1.00  0.00    -0.033 A 
HETATM   16  C   UNL     1      16.911  48.648  17.569  1.00  0.00     0.010 A 
HETATM   17  C   UNL     1      16.886  49.778  16.723  1.00  0.00     0.017 A 
BRANCH  15  18
HETATM   18  C   UNL     1      15.880  47.033  19.272  1.00  0.00     0.273 C 
BRANCH  18  19
HETATM   19  N   UNL     1      17.141  46.892  20.060  1.00  0.00    -0.064 N 
HETATM   20  C   UNL     1      17.252  47.993  21.086  1.00  0.00     0.263 C 
HETATM   21  C   UNL     1      18.569  47.876  21.904  1.00  0.00     0.262 C 
HETATM   22  N   UNL     1      18.672  46.513  22.573  1.00  0.00    -0.072 N 
HETATM   23  C   UNL     1      18.578  45.386  21.543  1.00  0.00     0.262 C 
HETATM   24  C   UNL     1      19.898  46.352  23.367  1.00  0.00     0.269 C 
HETATM   25  H   UNL     1      17.881  46.458  23.215  1.00  0.00     0.279 HD
HETATM   26  C   UNL     1      17.243  45.525  20.742  1.00  0.00     0.263 C 
HETATM   27  H   UNL     1      17.917  46.969  19.402  1.00  0.00     0.280 HD
ENDBRANCH  18  19
ENDBRANCH  15  18
ENDBRANCH   9  12
ENDBRANCH   5   8
BRANCH   1  28
HETATM   28  N   UNL     1      14.851  55.735  12.174  1.00  0.00    -0.188 N 
HETATM   29  H   UNL     1      13.975  55.494  11.795  1.00  0.00     0.184 HD
BRANCH  28  30
HETATM   30  C   UNL     1      15.102  57.049  12.540  1.00  0.00     0.727 A 
HETATM   31  N   UNL     1      14.115  57.953  12.373  1.00  0.00    -0.062 NA
HETATM   32  C   UNL     1      14.284  59.280  12.701  1.00  0.00     0.089 A 
HETATM   33  C   UNL     1      15.536  59.726  13.240  1.00  0.00     0.053 A 
HETATM   34  C   UNL     1      16.553  58.758  13.406  1.00  0.00     0.139 A 
HETATM   35  N   UNL     1      16.322  57.446  13.056  1.00  0.00    -0.075 NA
BRANCH  32  36
HETATM   36  C   UNL     1      13.114  60.184  12.464  1.00  0.00     0.011 A 
HETATM   37  C   UNL     1      13.081  61.571  12.911  1.00  0.00     0.017 A 
HETATM   38  C   UNL     1      11.927  62.401  12.656  1.00  0.00     0.020 A 
HETATM   39  C   UNL     1      10.812  61.823  11.952  1.00  0.00     0.116 A 
HETATM   40  N   UNL     1      10.856  60.487  11.525  1.00  0.00    -0.272 NA
HETATM   41  C   UNL     1      11.954  59.664  11.755  1.00  0.00     0.130 A 
ENDBRANCH  32  36
ENDBRANCH  28  30
ENDBRANCH   1  28
TORSDOF 7
ENDMDL
