REMARK VINA RESULT:    -8.806      5.534      9.443
REMARK INTER + INTRA:         -13.075
REMARK INTER:                 -12.409
REMARK INTRA:                  -0.666
REMARK UNBOUND:                -0.666
REMARK  7 active torsions:
REMARK  status: ('A' for Active; 'I' for Inactive)
REMARK    1  A    between atoms: C_1  and  N_2 
REMARK    2  A    between atoms: N_2  and  C_16 
REMARK    3  A    between atoms: C_10  and  N_11 
REMARK       I    between atoms: N_11  and  C_25 
REMARK    4  A    between atoms: N_13  and  C_32 
REMARK    5  A    between atoms: C_17  and  C_20 
REMARK    6  A    between atoms: C_25  and  C_26 
REMARK    7  A    between atoms: C_31  and  C_32 
ROOT
HETATM    1  C   UNL     1      19.105  46.320  21.316  1.00  0.00     0.057 A 
HETATM    2  C   UNL     1      19.575  44.976  20.957  1.00  0.00    -0.035 A 
HETATM    3  C   UNL     1      20.875  44.848  20.364  1.00  0.00     0.011 A 
HETATM    4  C   UNL     1      21.694  46.011  20.130  1.00  0.00     0.030 A 
HETATM    5  C   UNL     1      21.243  47.317  20.480  1.00  0.00     0.037 A 
HETATM    6  C   UNL     1      19.925  47.453  21.080  1.00  0.00     0.060 A 
HETATM    7  C   UNL     1      18.742  43.694  21.191  1.00  0.00     0.050 C 
ENDROOT
BRANCH   5   8
HETATM    8  N   UNL     1      22.123  48.431  20.224  1.00  0.00    -0.323 N 
HETATM    9  C   UNL     1      21.834  49.608  19.553  1.00  0.00     0.256 C 
HETATM   10  O   UNL     1      20.829  49.792  18.882  1.00  0.00    -0.267 OA
HETATM   11  H   UNL     1      23.041  48.343  20.568  1.00  0.00     0.169 HD
BRANCH   9  12
HETATM   12  C   UNL     1      22.808  50.739  19.627  1.00  0.00     0.032 A 
HETATM   13  C   UNL     1      23.953  50.816  18.717  1.00  0.00     0.017 A 
HETATM   14  C   UNL     1      24.888  51.909  18.820  1.00  0.00     0.010 A 
HETATM   15  C   UNL     1      24.679  52.935  19.839  1.00  0.00    -0.033 A 
HETATM   16  C   UNL     1      23.531  52.837  20.726  1.00  0.00     0.010 A 
HETATM   17  C   UNL     1      22.614  51.767  20.628  1.00  0.00     0.017 A 
BRANCH  15  18
HETATM   18  C   UNL     1      25.637  54.125  20.036  1.00  0.00     0.273 C 
BRANCH  18  19
HETATM   19  N   UNL     1      25.798  55.069  18.890  1.00  0.00    -0.064 N 
HETATM   20  C   UNL     1      24.692  54.875  17.882  1.00  0.00     0.263 C 
HETATM   21  C   UNL     1      24.853  55.835  16.670  1.00  0.00     0.262 C 
HETATM   22  N   UNL     1      24.903  57.284  17.131  1.00  0.00    -0.072 N 
HETATM   23  C   UNL     1      26.031  57.502  18.142  1.00  0.00     0.262 C 
HETATM   24  C   UNL     1      25.048  58.238  16.022  1.00  0.00     0.269 C 
HETATM   25  H   UNL     1      24.003  57.466  17.576  1.00  0.00     0.279 HD
HETATM   26  C   UNL     1      25.839  56.529  19.350  1.00  0.00     0.263 C 
HETATM   27  H   UNL     1      26.694  54.858  18.450  1.00  0.00     0.280 HD
ENDBRANCH  18  19
ENDBRANCH  15  18
ENDBRANCH   9  12
ENDBRANCH   5   8
BRANCH   1  28
HETATM   28  N   UNL     1      17.848  46.509  21.895  1.00  0.00    -0.188 N 
HETATM   29  H   UNL     1      17.771  46.600  22.872  1.00  0.00     0.184 HD
BRANCH  28  30
HETATM   30  C   UNL     1      16.708  46.570  21.108  1.00  0.00     0.727 A 
HETATM   31  N   UNL     1      16.639  47.532  20.165  1.00  0.00    -0.062 NA
HETATM   32  C   UNL     1      15.539  47.670  19.348  1.00  0.00     0.089 A 
HETATM   33  C   UNL     1      14.430  46.771  19.490  1.00  0.00     0.053 A 
HETATM   34  C   UNL     1      14.529  45.772  20.485  1.00  0.00     0.139 A 
HETATM   35  N   UNL     1      15.656  45.688  21.273  1.00  0.00    -0.075 NA
BRANCH  32  36
HETATM   36  C   UNL     1      15.584  48.780  18.345  1.00  0.00     0.011 A 
HETATM   37  C   UNL     1      16.789  49.130  17.603  1.00  0.00     0.017 A 
HETATM   38  C   UNL     1      16.778  50.211  16.645  1.00  0.00     0.020 A 
HETATM   39  C   UNL     1      15.549  50.933  16.444  1.00  0.00     0.116 A 
HETATM   40  N   UNL     1      14.395  50.586  17.162  1.00  0.00    -0.272 NA
HETATM   41  C   UNL     1      14.375  49.549  18.090  1.00  0.00     0.130 A 
ENDBRANCH  32  36
ENDBRANCH  28  30
ENDBRANCH   1  28
TORSDOF 7
ENDMDL
