REMARK VINA RESULT:    -7.433      3.818     12.253
REMARK INTER + INTRA:         -10.837
REMARK INTER:                 -10.868
REMARK INTRA:                   0.030
REMARK UNBOUND:                -0.362
REMARK  7 active torsions:
REMARK  status: ('A' for Active; 'I' for Inactive)
REMARK    1  A    between atoms: C_1  and  N_2 
REMARK    2  A    between atoms: N_2  and  C_16 
REMARK    3  A    between atoms: C_10  and  N_11 
REMARK       I    between atoms: N_11  and  C_25 
REMARK    4  A    between atoms: N_13  and  C_32 
REMARK    5  A    between atoms: C_17  and  C_20 
REMARK    6  A    between atoms: C_25  and  C_26 
REMARK    7  A    between atoms: C_31  and  C_32 
ROOT
HETATM    1  C   UNL     1      18.223  48.708  18.946  1.00  0.00     0.057 A 
HETATM    2  C   UNL     1      17.212  47.651  19.077  1.00  0.00    -0.035 A 
HETATM    3  C   UNL     1      16.101  47.660  18.169  1.00  0.00     0.011 A 
HETATM    4  C   UNL     1      15.986  48.681  17.157  1.00  0.00     0.030 A 
HETATM    5  C   UNL     1      16.967  49.706  17.025  1.00  0.00     0.037 A 
HETATM    6  C   UNL     1      18.095  49.703  17.944  1.00  0.00     0.060 A 
HETATM    7  C   UNL     1      17.288  46.529  20.138  1.00  0.00     0.050 C 
ENDROOT
BRANCH   5   8
HETATM    8  N   UNL     1      16.788  50.687  15.983  1.00  0.00    -0.323 N 
HETATM    9  C   UNL     1      15.806  51.659  15.888  1.00  0.00     0.256 C 
HETATM   10  O   UNL     1      14.801  51.696  16.581  1.00  0.00    -0.267 OA
HETATM   11  H   UNL     1      17.444  50.661  15.250  1.00  0.00     0.169 HD
BRANCH   9  12
HETATM   12  C   UNL     1      15.956  52.738  14.865  1.00  0.00     0.032 A 
HETATM   13  C   UNL     1      14.843  53.633  14.536  1.00  0.00     0.017 A 
HETATM   14  C   UNL     1      15.009  54.655  13.533  1.00  0.00     0.010 A 
HETATM   15  C   UNL     1      16.295  54.789  12.853  1.00  0.00    -0.033 A 
HETATM   16  C   UNL     1      17.383  53.892  13.203  1.00  0.00     0.010 A 
HETATM   17  C   UNL     1      17.224  52.888  14.185  1.00  0.00     0.017 A 
BRANCH  15  18
HETATM   18  C   UNL     1      16.555  55.837  11.755  1.00  0.00     0.273 C 
BRANCH  18  19
HETATM   19  N   UNL     1      15.833  57.139  11.868  1.00  0.00    -0.064 N 
HETATM   20  C   UNL     1      14.349  56.912  12.020  1.00  0.00     0.263 C 
HETATM   21  C   UNL     1      13.576  58.256  12.119  1.00  0.00     0.262 C 
HETATM   22  N   UNL     1      14.104  59.102  13.269  1.00  0.00    -0.072 N 
HETATM   23  C   UNL     1      15.605  59.356  13.120  1.00  0.00     0.262 C 
HETATM   24  C   UNL     1      13.401  60.385  13.412  1.00  0.00     0.269 C 
HETATM   25  H   UNL     1      13.929  58.560  14.115  1.00  0.00     0.279 HD
HETATM   26  C   UNL     1      16.356  57.988  13.031  1.00  0.00     0.263 C 
HETATM   27  H   UNL     1      16.006  57.655  11.005  1.00  0.00     0.280 HD
ENDBRANCH  18  19
ENDBRANCH  15  18
ENDBRANCH   9  12
ENDBRANCH   5   8
BRANCH   1  28
HETATM   28  N   UNL     1      19.326  48.753  19.801  1.00  0.00    -0.188 N 
HETATM   29  H   UNL     1      19.198  48.990  20.748  1.00  0.00     0.184 HD
BRANCH  28  30
HETATM   30  C   UNL     1      20.599  48.469  19.331  1.00  0.00     0.727 A 
HETATM   31  N   UNL     1      21.389  49.503  18.973  1.00  0.00    -0.062 NA
HETATM   32  C   UNL     1      22.662  49.309  18.487  1.00  0.00     0.089 A 
HETATM   33  C   UNL     1      23.178  47.977  18.355  1.00  0.00     0.053 A 
HETATM   34  C   UNL     1      22.332  46.912  18.739  1.00  0.00     0.139 A 
HETATM   35  N   UNL     1      21.065  47.172  19.216  1.00  0.00    -0.075 NA
BRANCH  32  36
HETATM   36  C   UNL     1      23.434  50.538  18.120  1.00  0.00     0.011 A 
HETATM   37  C   UNL     1      24.254  50.629  16.918  1.00  0.00     0.017 A 
HETATM   38  C   UNL     1      24.980  51.840  16.610  1.00  0.00     0.020 A 
HETATM   39  C   UNL     1      24.874  52.949  17.521  1.00  0.00     0.116 A 
HETATM   40  N   UNL     1      24.081  52.850  18.674  1.00  0.00    -0.272 NA
HETATM   41  C   UNL     1      23.370  51.699  18.995  1.00  0.00     0.130 A 
ENDBRANCH  32  36
ENDBRANCH  28  30
ENDBRANCH   1  28
TORSDOF 7
ENDMDL
