MODEL 1
REMARK VINA RESULT:   -12.904      0.000      0.000
REMARK INTER + INTRA:         -19.180
REMARK INTER:                 -18.763
REMARK INTRA:                  -0.417
REMARK UNBOUND:                -0.996
REMARK  7 active torsions:
REMARK  status: ('A' for Active; 'I' for Inactive)
REMARK    1  A    between atoms: C_1  and  N_2 
REMARK    2  A    between atoms: N_2  and  C_16 
REMARK    3  A    between atoms: C_10  and  N_11 
REMARK       I    between atoms: N_11  and  C_25 
REMARK    4  A    between atoms: N_13  and  C_32 
REMARK    5  A    between atoms: C_17  and  C_20 
REMARK    6  A    between atoms: C_25  and  C_26 
REMARK    7  A    between atoms: C_31  and  C_32 
ROOT
HETATM    1  C   UNL     1      15.828  54.750  12.335  1.00  0.00     0.057 A 
HETATM    2  C   UNL     1      16.938  54.628  11.384  1.00  0.00    -0.035 A 
HETATM    3  C   UNL     1      17.911  53.597  11.606  1.00  0.00     0.011 A 
HETATM    4  C   UNL     1      17.794  52.706  12.734  1.00  0.00     0.030 A 
HETATM    5  C   UNL     1      16.715  52.820  13.658  1.00  0.00     0.037 A 
HETATM    6  C   UNL     1      15.727  53.865  13.439  1.00  0.00     0.060 A 
HETATM    7  C   UNL     1      17.110  55.550  10.154  1.00  0.00     0.050 C 
ENDROOT
BRANCH   5   8
HETATM    8  N   UNL     1      16.661  51.887  14.756  1.00  0.00    -0.323 N 
HETATM    9  C   UNL     1      15.692  51.787  15.741  1.00  0.00     0.256 C 
HETATM   10  O   UNL     1      14.830  52.628  15.951  1.00  0.00    -0.267 OA
HETATM   11  H   UNL     1      17.404  51.243  14.813  1.00  0.00     0.169 HD
BRANCH   9  12
HETATM   12  C   UNL     1      15.689  50.586  16.631  1.00  0.00     0.032 A 
HETATM   13  C   UNL     1      14.505  50.224  17.414  1.00  0.00     0.017 A 
HETATM   14  C   UNL     1      14.534  49.070  18.278  1.00  0.00     0.010 A 
HETATM   15  C   UNL     1      15.752  48.269  18.361  1.00  0.00    -0.033 A 
HETATM   16  C   UNL     1      16.911  48.648  17.569  1.00  0.00     0.010 A 
HETATM   17  C   UNL     1      16.886  49.778  16.723  1.00  0.00     0.017 A 
BRANCH  15  18
HETATM   18  C   UNL     1      15.880  47.033  19.272  1.00  0.00     0.273 C 
BRANCH  18  19
HETATM   19  N   UNL     1      17.141  46.892  20.060  1.00  0.00    -0.064 N 
HETATM   20  C   UNL     1      17.252  47.993  21.086  1.00  0.00     0.263 C 
HETATM   21  C   UNL     1      18.569  47.876  21.904  1.00  0.00     0.262 C 
HETATM   22  N   UNL     1      18.672  46.513  22.573  1.00  0.00    -0.072 N 
HETATM   23  C   UNL     1      18.578  45.386  21.543  1.00  0.00     0.262 C 
HETATM   24  C   UNL     1      19.898  46.352  23.367  1.00  0.00     0.269 C 
HETATM   25  H   UNL     1      17.881  46.458  23.215  1.00  0.00     0.279 HD
HETATM   26  C   UNL     1      17.243  45.525  20.742  1.00  0.00     0.263 C 
HETATM   27  H   UNL     1      17.917  46.969  19.402  1.00  0.00     0.280 HD
ENDBRANCH  18  19
ENDBRANCH  15  18
ENDBRANCH   9  12
ENDBRANCH   5   8
BRANCH   1  28
HETATM   28  N   UNL     1      14.851  55.735  12.174  1.00  0.00    -0.188 N 
HETATM   29  H   UNL     1      13.975  55.494  11.795  1.00  0.00     0.184 HD
BRANCH  28  30
HETATM   30  C   UNL     1      15.102  57.049  12.540  1.00  0.00     0.727 A 
HETATM   31  N   UNL     1      14.115  57.953  12.373  1.00  0.00    -0.062 NA
HETATM   32  C   UNL     1      14.284  59.280  12.701  1.00  0.00     0.089 A 
HETATM   33  C   UNL     1      15.536  59.726  13.240  1.00  0.00     0.053 A 
HETATM   34  C   UNL     1      16.553  58.758  13.406  1.00  0.00     0.139 A 
HETATM   35  N   UNL     1      16.322  57.446  13.056  1.00  0.00    -0.075 NA
BRANCH  32  36
HETATM   36  C   UNL     1      13.114  60.184  12.464  1.00  0.00     0.011 A 
HETATM   37  C   UNL     1      13.081  61.571  12.911  1.00  0.00     0.017 A 
HETATM   38  C   UNL     1      11.927  62.401  12.656  1.00  0.00     0.020 A 
HETATM   39  C   UNL     1      10.812  61.823  11.952  1.00  0.00     0.116 A 
HETATM   40  N   UNL     1      10.856  60.487  11.525  1.00  0.00    -0.272 NA
HETATM   41  C   UNL     1      11.954  59.664  11.755  1.00  0.00     0.130 A 
ENDBRANCH  32  36
ENDBRANCH  28  30
ENDBRANCH   1  28
TORSDOF 7
ENDMDL
MODEL 2
REMARK VINA RESULT:   -10.893      3.096     12.359
REMARK INTER + INTRA:         -16.346
REMARK INTER:                 -15.380
REMARK INTRA:                  -0.966
REMARK UNBOUND:                -0.996
REMARK  7 active torsions:
REMARK  status: ('A' for Active; 'I' for Inactive)
REMARK    1  A    between atoms: C_1  and  N_2 
REMARK    2  A    between atoms: N_2  and  C_16 
REMARK    3  A    between atoms: C_10  and  N_11 
REMARK       I    between atoms: N_11  and  C_25 
REMARK    4  A    between atoms: N_13  and  C_32 
REMARK    5  A    between atoms: C_17  and  C_20 
REMARK    6  A    between atoms: C_25  and  C_26 
REMARK    7  A    between atoms: C_31  and  C_32 
ROOT
HETATM    1  C   UNL     1      16.930  48.741  17.582  1.00  0.00     0.057 A 
HETATM    2  C   UNL     1      15.616  48.444  18.165  1.00  0.00    -0.035 A 
HETATM    3  C   UNL     1      14.542  49.364  17.919  1.00  0.00     0.011 A 
HETATM    4  C   UNL     1      14.755  50.545  17.118  1.00  0.00     0.030 A 
HETATM    5  C   UNL     1      16.029  50.833  16.548  1.00  0.00     0.037 A 
HETATM    6  C   UNL     1      17.121  49.906  16.796  1.00  0.00     0.060 A 
HETATM    7  C   UNL     1      15.330  47.192  19.025  1.00  0.00     0.050 C 
ENDROOT
BRANCH   5   8
HETATM    8  N   UNL     1      16.161  52.028  15.751  1.00  0.00    -0.323 N 
HETATM    9  C   UNL     1      15.666  52.262  14.479  1.00  0.00     0.256 C 
HETATM   10  O   UNL     1      15.214  51.398  13.743  1.00  0.00    -0.267 OA
HETATM   11  H   UNL     1      16.665  52.767  16.162  1.00  0.00     0.169 HD
BRANCH   9  12
HETATM   12  C   UNL     1      15.690  53.656  13.940  1.00  0.00     0.032 A 
HETATM   13  C   UNL     1      16.920  54.452  13.945  1.00  0.00     0.017 A 
HETATM   14  C   UNL     1      16.911  55.800  13.435  1.00  0.00     0.010 A 
HETATM   15  C   UNL     1      15.667  56.361  12.914  1.00  0.00    -0.033 A 
HETATM   16  C   UNL     1      14.462  55.547  12.916  1.00  0.00     0.010 A 
HETATM   17  C   UNL     1      14.467  54.226  13.416  1.00  0.00     0.017 A 
BRANCH  15  18
HETATM   18  C   UNL     1      15.561  57.797  12.369  1.00  0.00     0.273 C 
BRANCH  18  19
HETATM   19  N   UNL     1      14.296  58.542  12.647  1.00  0.00    -0.064 N 
HETATM   20  C   UNL     1      14.598  59.916  13.191  1.00  0.00     0.263 C 
HETATM   21  C   UNL     1      13.293  60.701  13.506  1.00  0.00     0.262 C 
HETATM   22  N   UNL     1      12.410  60.800  12.271  1.00  0.00    -0.072 N 
HETATM   23  C   UNL     1      12.081  59.413  11.716  1.00  0.00     0.262 C 
HETATM   24  C   UNL     1      11.163  61.541  12.512  1.00  0.00     0.269 C 
HETATM   25  H   UNL     1      12.951  61.326  11.584  1.00  0.00     0.279 HD
HETATM   26  C   UNL     1      13.410  58.651  11.403  1.00  0.00     0.263 C 
HETATM   27  H   UNL     1      13.781  58.009  13.348  1.00  0.00     0.280 HD
ENDBRANCH  18  19
ENDBRANCH  15  18
ENDBRANCH   9  12
ENDBRANCH   5   8
BRANCH   1  28
HETATM   28  N   UNL     1      18.014  47.884  17.788  1.00  0.00    -0.188 N 
HETATM   29  H   UNL     1      18.078  47.047  17.274  1.00  0.00     0.184 HD
BRANCH  28  30
HETATM   30  C   UNL     1      19.002  48.200  18.709  1.00  0.00     0.727 A 
HETATM   31  N   UNL     1      19.980  49.046  18.323  1.00  0.00    -0.062 NA
HETATM   32  C   UNL     1      21.005  49.404  19.171  1.00  0.00     0.089 A 
HETATM   33  C   UNL     1      21.044  48.875  20.504  1.00  0.00     0.053 A 
HETATM   34  C   UNL     1      20.006  47.993  20.882  1.00  0.00     0.139 A 
HETATM   35  N   UNL     1      19.010  47.671  19.986  1.00  0.00    -0.075 NA
BRANCH  32  36
HETATM   36  C   UNL     1      22.032  50.345  18.622  1.00  0.00     0.011 A 
HETATM   37  C   UNL     1      23.306  49.896  18.075  1.00  0.00     0.017 A 
HETATM   38  C   UNL     1      24.263  50.846  17.556  1.00  0.00     0.020 A 
HETATM   39  C   UNL     1      23.926  52.245  17.596  1.00  0.00     0.116 A 
HETATM   40  N   UNL     1      22.696  52.665  18.124  1.00  0.00    -0.272 NA
HETATM   41  C   UNL     1      21.754  51.773  18.628  1.00  0.00     0.130 A 
ENDBRANCH  32  36
ENDBRANCH  28  30
ENDBRANCH   1  28
TORSDOF 7
ENDMDL
MODEL 3
REMARK VINA RESULT:   -10.777      3.882     12.210
REMARK INTER + INTRA:         -16.183
REMARK INTER:                 -15.891
REMARK INTRA:                  -0.292
REMARK UNBOUND:                -0.996
REMARK  7 active torsions:
REMARK  status: ('A' for Active; 'I' for Inactive)
REMARK    1  A    between atoms: C_1  and  N_2 
REMARK    2  A    between atoms: N_2  and  C_16 
REMARK    3  A    between atoms: C_10  and  N_11 
REMARK       I    between atoms: N_11  and  C_25 
REMARK    4  A    between atoms: N_13  and  C_32 
REMARK    5  A    between atoms: C_17  and  C_20 
REMARK    6  A    between atoms: C_25  and  C_26 
REMARK    7  A    between atoms: C_31  and  C_32 
ROOT
HETATM    1  C   UNL     1      18.184  48.681  18.816  1.00  0.00     0.057 A 
HETATM    2  C   UNL     1      17.192  47.607  18.949  1.00  0.00    -0.035 A 
HETATM    3  C   UNL     1      16.073  47.604  18.051  1.00  0.00     0.011 A 
HETATM    4  C   UNL     1      15.932  48.629  17.046  1.00  0.00     0.030 A 
HETATM    5  C   UNL     1      16.895  49.671  16.913  1.00  0.00     0.037 A 
HETATM    6  C   UNL     1      18.031  49.681  17.822  1.00  0.00     0.060 A 
HETATM    7  C   UNL     1      17.295  46.480  20.002  1.00  0.00     0.050 C 
ENDROOT
BRANCH   5   8
HETATM    8  N   UNL     1      16.692  50.655  15.879  1.00  0.00    -0.323 N 
HETATM    9  C   UNL     1      15.713  51.633  15.815  1.00  0.00     0.256 C 
HETATM   10  O   UNL     1      14.728  51.673  16.537  1.00  0.00    -0.267 OA
HETATM   11  H   UNL     1      17.326  50.628  15.126  1.00  0.00     0.169 HD
BRANCH   9  12
HETATM   12  C   UNL     1      15.838  52.714  14.791  1.00  0.00     0.032 A 
HETATM   13  C   UNL     1      14.783  53.714  14.608  1.00  0.00     0.017 A 
HETATM   14  C   UNL     1      14.921  54.736  13.601  1.00  0.00     0.010 A 
HETATM   15  C   UNL     1      16.123  54.764  12.769  1.00  0.00    -0.033 A 
HETATM   16  C   UNL     1      17.156  53.764  12.976  1.00  0.00     0.010 A 
HETATM   17  C   UNL     1      17.023  52.759  13.961  1.00  0.00     0.017 A 
BRANCH  15  18
HETATM   18  C   UNL     1      16.345  55.806  11.657  1.00  0.00     0.273 C 
BRANCH  18  19
HETATM   19  N   UNL     1      15.719  57.149  11.842  1.00  0.00    -0.064 N 
HETATM   20  C   UNL     1      14.223  57.022  11.984  1.00  0.00     0.263 C 
HETATM   21  C   UNL     1      13.549  58.412  12.157  1.00  0.00     0.262 C 
HETATM   22  N   UNL     1      14.135  59.152  13.351  1.00  0.00    -0.072 N 
HETATM   23  C   UNL     1      15.651  59.304  13.214  1.00  0.00     0.262 C 
HETATM   24  C   UNL     1      13.526  60.473  13.565  1.00  0.00     0.269 C 
HETATM   25  H   UNL     1      13.919  58.579  14.167  1.00  0.00     0.279 HD
HETATM   26  C   UNL     1      16.301  57.892  13.048  1.00  0.00     0.263 C 
HETATM   27  H   UNL     1      15.932  57.697  11.009  1.00  0.00     0.280 HD
ENDBRANCH  18  19
ENDBRANCH  15  18
ENDBRANCH   9  12
ENDBRANCH   5   8
BRANCH   1  28
HETATM   28  N   UNL     1      19.293  48.740  19.663  1.00  0.00    -0.188 N 
HETATM   29  H   UNL     1      19.177  49.024  20.598  1.00  0.00     0.184 HD
BRANCH  28  30
HETATM   30  C   UNL     1      20.556  48.402  19.200  1.00  0.00     0.727 A 
HETATM   31  N   UNL     1      21.422  49.402  18.935  1.00  0.00    -0.062 NA
HETATM   32  C   UNL     1      22.692  49.155  18.462  1.00  0.00     0.089 A 
HETATM   33  C   UNL     1      23.120  47.803  18.245  1.00  0.00     0.053 A 
HETATM   34  C   UNL     1      22.194  46.775  18.532  1.00  0.00     0.139 A 
HETATM   35  N   UNL     1      20.936  47.088  19.000  1.00  0.00    -0.075 NA
BRANCH  32  36
HETATM   36  C   UNL     1      23.555  50.350  18.202  1.00  0.00     0.011 A 
HETATM   37  C   UNL     1      24.252  50.565  16.940  1.00  0.00     0.017 A 
HETATM   38  C   UNL     1      25.073  51.737  16.740  1.00  0.00     0.020 A 
HETATM   39  C   UNL     1      25.186  52.683  17.818  1.00  0.00     0.116 A 
HETATM   40  N   UNL     1      24.509  52.467  19.028  1.00  0.00    -0.272 NA
HETATM   41  C   UNL     1      23.710  51.349  19.249  1.00  0.00     0.130 A 
ENDBRANCH  32  36
ENDBRANCH  28  30
ENDBRANCH   1  28
TORSDOF 7
ENDMDL
MODEL 4
REMARK VINA RESULT:   -10.540      1.630     13.540
REMARK INTER + INTRA:         -15.849
REMARK INTER:                 -14.967
REMARK INTRA:                  -0.882
REMARK UNBOUND:                -0.996
REMARK  7 active torsions:
REMARK  status: ('A' for Active; 'I' for Inactive)
REMARK    1  A    between atoms: C_1  and  N_2 
REMARK    2  A    between atoms: N_2  and  C_16 
REMARK    3  A    between atoms: C_10  and  N_11 
REMARK       I    between atoms: N_11  and  C_25 
REMARK    4  A    between atoms: N_13  and  C_32 
REMARK    5  A    between atoms: C_17  and  C_20 
REMARK    6  A    between atoms: C_25  and  C_26 
REMARK    7  A    between atoms: C_31  and  C_32 
ROOT
HETATM    1  C   UNL     1      16.955  48.598  17.453  1.00  0.00     0.057 A 
HETATM    2  C   UNL     1      15.663  48.340  18.099  1.00  0.00    -0.035 A 
HETATM    3  C   UNL     1      14.615  49.306  17.928  1.00  0.00     0.011 A 
HETATM    4  C   UNL     1      14.832  50.495  17.142  1.00  0.00     0.030 A 
HETATM    5  C   UNL     1      16.085  50.747  16.511  1.00  0.00     0.037 A 
HETATM    6  C   UNL     1      17.151  49.772  16.682  1.00  0.00     0.060 A 
HETATM    7  C   UNL     1      15.372  47.080  18.947  1.00  0.00     0.050 C 
ENDROOT
BRANCH   5   8
HETATM    8  N   UNL     1      16.222  51.953  15.733  1.00  0.00    -0.323 N 
HETATM    9  C   UNL     1      15.686  52.227  14.485  1.00  0.00     0.256 C 
HETATM   10  O   UNL     1      15.181  51.391  13.751  1.00  0.00    -0.267 OA
HETATM   11  H   UNL     1      16.764  52.669  16.138  1.00  0.00     0.169 HD
BRANCH   9  12
HETATM   12  C   UNL     1      15.732  53.631  13.973  1.00  0.00     0.032 A 
HETATM   13  C   UNL     1      16.987  54.384  13.931  1.00  0.00     0.017 A 
HETATM   14  C   UNL     1      17.000  55.742  13.448  1.00  0.00     0.010 A 
HETATM   15  C   UNL     1      15.752  56.355  13.001  1.00  0.00    -0.033 A 
HETATM   16  C   UNL     1      14.521  55.583  13.048  1.00  0.00     0.010 A 
HETATM   17  C   UNL     1      14.505  54.252  13.522  1.00  0.00     0.017 A 
BRANCH  15  18
HETATM   18  C   UNL     1      15.668  57.806  12.490  1.00  0.00     0.273 C 
BRANCH  18  19
HETATM   19  N   UNL     1      14.383  58.535  12.709  1.00  0.00    -0.064 N 
HETATM   20  C   UNL     1      14.647  59.962  13.123  1.00  0.00     0.263 C 
HETATM   21  C   UNL     1      13.322  60.733  13.377  1.00  0.00     0.262 C 
HETATM   22  N   UNL     1      12.428  60.693  12.145  1.00  0.00    -0.072 N 
HETATM   23  C   UNL     1      12.137  59.252  11.723  1.00  0.00     0.262 C 
HETATM   24  C   UNL     1      11.161  61.416  12.329  1.00  0.00     0.269 C 
HETATM   25  H   UNL     1      12.949  61.169  11.408  1.00  0.00     0.279 HD
HETATM   26  C   UNL     1      13.486  58.504  11.469  1.00  0.00     0.263 C 
HETATM   27  H   UNL     1      13.889  58.053  13.461  1.00  0.00     0.280 HD
ENDBRANCH  18  19
ENDBRANCH  15  18
ENDBRANCH   9  12
ENDBRANCH   5   8
BRANCH   1  28
HETATM   28  N   UNL     1      18.014  47.697  17.585  1.00  0.00    -0.188 N 
HETATM   29  H   UNL     1      18.131  46.983  16.916  1.00  0.00     0.184 HD
BRANCH  28  30
HETATM   30  C   UNL     1      18.902  47.796  18.645  1.00  0.00     0.727 A 
HETATM   31  N   UNL     1      18.808  46.886  19.637  1.00  0.00    -0.062 NA
HETATM   32  C   UNL     1      19.643  46.918  20.732  1.00  0.00     0.089 A 
HETATM   33  C   UNL     1      20.647  47.938  20.831  1.00  0.00     0.053 A 
HETATM   34  C   UNL     1      20.725  48.877  19.778  1.00  0.00     0.139 A 
HETATM   35  N   UNL     1      19.857  48.793  18.710  1.00  0.00    -0.075 NA
BRANCH  32  36
HETATM   36  C   UNL     1      19.434  45.856  21.766  1.00  0.00     0.011 A 
HETATM   37  C   UNL     1      18.658  44.648  21.516  1.00  0.00     0.017 A 
HETATM   38  C   UNL     1      18.487  43.653  22.549  1.00  0.00     0.020 A 
HETATM   39  C   UNL     1      19.100  43.887  23.830  1.00  0.00     0.116 A 
HETATM   40  N   UNL     1      19.847  45.053  24.059  1.00  0.00    -0.272 NA
HETATM   41  C   UNL     1      20.030  46.028  23.083  1.00  0.00     0.130 A 
ENDBRANCH  32  36
ENDBRANCH  28  30
ENDBRANCH   1  28
TORSDOF 7
ENDMDL
MODEL 5
REMARK VINA RESULT:   -10.092      2.516     12.662
REMARK INTER + INTRA:         -15.218
REMARK INTER:                 -14.480
REMARK INTRA:                  -0.738
REMARK UNBOUND:                -0.996
REMARK  7 active torsions:
REMARK  status: ('A' for Active; 'I' for Inactive)
REMARK    1  A    between atoms: C_1  and  N_2 
REMARK    2  A    between atoms: N_2  and  C_16 
REMARK    3  A    between atoms: C_10  and  N_11 
REMARK       I    between atoms: N_11  and  C_25 
REMARK    4  A    between atoms: N_13  and  C_32 
REMARK    5  A    between atoms: C_17  and  C_20 
REMARK    6  A    between atoms: C_25  and  C_26 
REMARK    7  A    between atoms: C_31  and  C_32 
ROOT
HETATM    1  C   UNL     1      15.291  48.297  18.091  1.00  0.00     0.057 A 
HETATM    2  C   UNL     1      13.972  48.117  18.710  1.00  0.00    -0.035 A 
HETATM    3  C   UNL     1      12.978  49.127  18.491  1.00  0.00     0.011 A 
HETATM    4  C   UNL     1      13.271  50.285  17.683  1.00  0.00     0.030 A 
HETATM    5  C   UNL     1      14.549  50.461  17.078  1.00  0.00     0.037 A 
HETATM    6  C   UNL     1      15.562  49.441  17.298  1.00  0.00     0.060 A 
HETATM    7  C   UNL     1      13.601  46.893  19.580  1.00  0.00     0.050 C 
ENDROOT
BRANCH   5   8
HETATM    8  N   UNL     1      14.764  51.640  16.276  1.00  0.00    -0.323 N 
HETATM    9  C   UNL     1      15.812  51.900  15.408  1.00  0.00     0.256 C 
HETATM   10  O   UNL     1      16.841  51.243  15.350  1.00  0.00    -0.267 OA
HETATM   11  H   UNL     1      14.083  52.346  16.356  1.00  0.00     0.169 HD
BRANCH   9  12
HETATM   12  C   UNL     1      15.707  53.067  14.480  1.00  0.00     0.032 A 
HETATM   13  C   UNL     1      16.772  53.372  13.520  1.00  0.00     0.017 A 
HETATM   14  C   UNL     1      16.654  54.513  12.648  1.00  0.00     0.010 A 
HETATM   15  C   UNL     1      15.464  55.358  12.731  1.00  0.00    -0.033 A 
HETATM   16  C   UNL     1      14.421  55.029  13.688  1.00  0.00     0.010 A 
HETATM   17  C   UNL     1      14.534  53.912  14.545  1.00  0.00     0.017 A 
BRANCH  15  18
HETATM   18  C   UNL     1      15.264  56.608  11.853  1.00  0.00     0.273 C 
BRANCH  18  19
HETATM   19  N   UNL     1      14.482  57.737  12.441  1.00  0.00    -0.064 N 
HETATM   20  C   UNL     1      15.380  58.917  12.717  1.00  0.00     0.263 C 
HETATM   21  C   UNL     1      14.589  60.097  13.348  1.00  0.00     0.262 C 
HETATM   22  N   UNL     1      13.428  60.510  12.454  1.00  0.00    -0.072 N 
HETATM   23  C   UNL     1      12.498  59.327  12.179  1.00  0.00     0.262 C 
HETATM   24  C   UNL     1      12.649  61.630  13.002  1.00  0.00     0.269 C 
HETATM   25  H   UNL     1      13.849  60.827  11.581  1.00  0.00     0.279 HD
HETATM   26  C   UNL     1      13.319  58.160  11.539  1.00  0.00     0.263 C 
HETATM   27  H   UNL     1      14.087  57.403  13.320  1.00  0.00     0.280 HD
ENDBRANCH  18  19
ENDBRANCH  15  18
ENDBRANCH   9  12
ENDBRANCH   5   8
BRANCH   1  28
HETATM   28  N   UNL     1      16.301  47.349  18.270  1.00  0.00    -0.188 N 
HETATM   29  H   UNL     1      16.328  46.551  17.693  1.00  0.00     0.184 HD
BRANCH  28  30
HETATM   30  C   UNL     1      17.267  47.518  19.250  1.00  0.00     0.727 A 
HETATM   31  N   UNL     1      18.525  47.806  18.858  1.00  0.00    -0.062 NA
HETATM   32  C   UNL     1      19.546  47.979  19.766  1.00  0.00     0.089 A 
HETATM   33  C   UNL     1      19.278  47.857  21.170  1.00  0.00     0.053 A 
HETATM   34  C   UNL     1      17.952  47.556  21.554  1.00  0.00     0.139 A 
HETATM   35  N   UNL     1      16.975  47.391  20.596  1.00  0.00    -0.075 NA
BRANCH  32  36
HETATM   36  C   UNL     1      20.898  48.291  19.203  1.00  0.00     0.011 A 
HETATM   37  C   UNL     1      21.870  47.260  18.859  1.00  0.00     0.017 A 
HETATM   38  C   UNL     1      23.162  47.614  18.318  1.00  0.00     0.020 A 
HETATM   39  C   UNL     1      23.464  49.009  18.131  1.00  0.00     0.116 A 
HETATM   40  N   UNL     1      22.520  49.992  18.465  1.00  0.00    -0.272 NA
HETATM   41  C   UNL     1      21.268  49.681  18.986  1.00  0.00     0.130 A 
ENDBRANCH  32  36
ENDBRANCH  28  30
ENDBRANCH   1  28
TORSDOF 7
ENDMDL
