REMARK VINA RESULT:    -7.347      3.063     12.413
REMARK INTER + INTRA:         -10.715
REMARK INTER:                  -9.851
REMARK INTRA:                  -0.864
REMARK UNBOUND:                -0.362
REMARK  7 active torsions:
REMARK  status: ('A' for Active; 'I' for Inactive)
REMARK    1  A    between atoms: C_1  and  N_2 
REMARK    2  A    between atoms: N_2  and  C_16 
REMARK    3  A    between atoms: C_10  and  N_11 
REMARK       I    between atoms: N_11  and  C_25 
REMARK    4  A    between atoms: N_13  and  C_32 
REMARK    5  A    between atoms: C_17  and  C_20 
REMARK    6  A    between atoms: C_25  and  C_26 
REMARK    7  A    between atoms: C_31  and  C_32 
ROOT
HETATM    1  C   UNL     1      16.984  48.679  17.713  1.00  0.00     0.057 A 
HETATM    2  C   UNL     1      15.653  48.364  18.244  1.00  0.00    -0.035 A 
HETATM    3  C   UNL     1      14.575  49.265  17.950  1.00  0.00     0.011 A 
HETATM    4  C   UNL     1      14.800  50.445  17.152  1.00  0.00     0.030 A 
HETATM    5  C   UNL     1      16.091  50.752  16.632  1.00  0.00     0.037 A 
HETATM    6  C   UNL     1      17.188  49.844  16.929  1.00  0.00     0.060 A 
HETATM    7  C   UNL     1      15.353  47.111  19.099  1.00  0.00     0.050 C 
ENDROOT
BRANCH   5   8
HETATM    8  N   UNL     1      16.235  51.945  15.835  1.00  0.00    -0.323 N 
HETATM    9  C   UNL     1      15.741  52.185  14.564  1.00  0.00     0.256 C 
HETATM   10  O   UNL     1      15.278  51.325  13.829  1.00  0.00    -0.267 OA
HETATM   11  H   UNL     1      16.748  52.679  16.245  1.00  0.00     0.169 HD
BRANCH   9  12
HETATM   12  C   UNL     1      15.780  53.578  14.025  1.00  0.00     0.032 A 
HETATM   13  C   UNL     1      17.027  54.347  13.994  1.00  0.00     0.017 A 
HETATM   14  C   UNL     1      17.033  55.695  13.485  1.00  0.00     0.010 A 
HETATM   15  C   UNL     1      15.787  56.283  13.000  1.00  0.00    -0.033 A 
HETATM   16  C   UNL     1      14.565  55.497  13.037  1.00  0.00     0.010 A 
HETATM   17  C   UNL     1      14.555  54.175  13.536  1.00  0.00     0.017 A 
BRANCH  15  18
HETATM   18  C   UNL     1      15.696  57.723  12.459  1.00  0.00     0.273 C 
BRANCH  18  19
HETATM   19  N   UNL     1      14.401  58.443  12.646  1.00  0.00    -0.064 N 
HETATM   20  C   UNL     1      14.644  59.863  13.096  1.00  0.00     0.263 C 
HETATM   21  C   UNL     1      13.307  60.624  13.316  1.00  0.00     0.262 C 
HETATM   22  N   UNL     1      12.458  60.604  12.053  1.00  0.00    -0.072 N 
HETATM   23  C   UNL     1      12.188  59.171  11.594  1.00  0.00     0.262 C 
HETATM   24  C   UNL     1      11.182  61.319  12.205  1.00  0.00     0.269 C 
HETATM   25  H   UNL     1      13.002  61.096  11.344  1.00  0.00     0.279 HD
HETATM   26  C   UNL     1      13.549  58.432  11.374  1.00  0.00     0.263 C 
HETATM   27  H   UNL     1      13.883  57.946  13.370  1.00  0.00     0.280 HD
ENDBRANCH  18  19
ENDBRANCH  15  18
ENDBRANCH   9  12
ENDBRANCH   5   8
BRANCH   1  28
HETATM   28  N   UNL     1      18.073  47.842  17.967  1.00  0.00    -0.188 N 
HETATM   29  H   UNL     1      18.150  46.985  17.488  1.00  0.00     0.184 HD
BRANCH  28  30
HETATM   30  C   UNL     1      19.046  48.205  18.886  1.00  0.00     0.727 A 
HETATM   31  N   UNL     1      20.008  49.062  18.486  1.00  0.00    -0.062 NA
HETATM   32  C   UNL     1      21.018  49.466  19.331  1.00  0.00     0.089 A 
HETATM   33  C   UNL     1      21.058  48.972  20.677  1.00  0.00     0.053 A 
HETATM   34  C   UNL     1      20.039  48.076  21.071  1.00  0.00     0.139 A 
HETATM   35  N   UNL     1      19.057  47.709  20.176  1.00  0.00    -0.075 NA
BRANCH  32  36
HETATM   36  C   UNL     1      22.027  50.416  18.765  1.00  0.00     0.011 A 
HETATM   37  C   UNL     1      23.277  49.976  18.159  1.00  0.00     0.017 A 
HETATM   38  C   UNL     1      24.217  50.935  17.626  1.00  0.00     0.020 A 
HETATM   39  C   UNL     1      23.888  52.333  17.713  1.00  0.00     0.116 A 
HETATM   40  N   UNL     1      22.681  52.745  18.298  1.00  0.00    -0.272 NA
HETATM   41  C   UNL     1      21.756  51.845  18.817  1.00  0.00     0.130 A 
ENDBRANCH  32  36
ENDBRANCH  28  30
ENDBRANCH   1  28
TORSDOF 7
ENDMDL
