REMARK VINA RESULT:   -10.092      2.516     12.662
REMARK INTER + INTRA:         -15.218
REMARK INTER:                 -14.480
REMARK INTRA:                  -0.738
REMARK UNBOUND:                -0.996
REMARK  7 active torsions:
REMARK  status: ('A' for Active; 'I' for Inactive)
REMARK    1  A    between atoms: C_1  and  N_2 
REMARK    2  A    between atoms: N_2  and  C_16 
REMARK    3  A    between atoms: C_10  and  N_11 
REMARK       I    between atoms: N_11  and  C_25 
REMARK    4  A    between atoms: N_13  and  C_32 
REMARK    5  A    between atoms: C_17  and  C_20 
REMARK    6  A    between atoms: C_25  and  C_26 
REMARK    7  A    between atoms: C_31  and  C_32 
ROOT
HETATM    1  C   UNL     1      15.291  48.297  18.091  1.00  0.00     0.057 A 
HETATM    2  C   UNL     1      13.972  48.117  18.710  1.00  0.00    -0.035 A 
HETATM    3  C   UNL     1      12.978  49.127  18.491  1.00  0.00     0.011 A 
HETATM    4  C   UNL     1      13.271  50.285  17.683  1.00  0.00     0.030 A 
HETATM    5  C   UNL     1      14.549  50.461  17.078  1.00  0.00     0.037 A 
HETATM    6  C   UNL     1      15.562  49.441  17.298  1.00  0.00     0.060 A 
HETATM    7  C   UNL     1      13.601  46.893  19.580  1.00  0.00     0.050 C 
ENDROOT
BRANCH   5   8
HETATM    8  N   UNL     1      14.764  51.640  16.276  1.00  0.00    -0.323 N 
HETATM    9  C   UNL     1      15.812  51.900  15.408  1.00  0.00     0.256 C 
HETATM   10  O   UNL     1      16.841  51.243  15.350  1.00  0.00    -0.267 OA
HETATM   11  H   UNL     1      14.083  52.346  16.356  1.00  0.00     0.169 HD
BRANCH   9  12
HETATM   12  C   UNL     1      15.707  53.067  14.480  1.00  0.00     0.032 A 
HETATM   13  C   UNL     1      16.772  53.372  13.520  1.00  0.00     0.017 A 
HETATM   14  C   UNL     1      16.654  54.513  12.648  1.00  0.00     0.010 A 
HETATM   15  C   UNL     1      15.464  55.358  12.731  1.00  0.00    -0.033 A 
HETATM   16  C   UNL     1      14.421  55.029  13.688  1.00  0.00     0.010 A 
HETATM   17  C   UNL     1      14.534  53.912  14.545  1.00  0.00     0.017 A 
BRANCH  15  18
HETATM   18  C   UNL     1      15.264  56.608  11.853  1.00  0.00     0.273 C 
BRANCH  18  19
HETATM   19  N   UNL     1      14.482  57.737  12.441  1.00  0.00    -0.064 N 
HETATM   20  C   UNL     1      15.380  58.917  12.717  1.00  0.00     0.263 C 
HETATM   21  C   UNL     1      14.589  60.097  13.348  1.00  0.00     0.262 C 
HETATM   22  N   UNL     1      13.428  60.510  12.454  1.00  0.00    -0.072 N 
HETATM   23  C   UNL     1      12.498  59.327  12.179  1.00  0.00     0.262 C 
HETATM   24  C   UNL     1      12.649  61.630  13.002  1.00  0.00     0.269 C 
HETATM   25  H   UNL     1      13.849  60.827  11.581  1.00  0.00     0.279 HD
HETATM   26  C   UNL     1      13.319  58.160  11.539  1.00  0.00     0.263 C 
HETATM   27  H   UNL     1      14.087  57.403  13.320  1.00  0.00     0.280 HD
ENDBRANCH  18  19
ENDBRANCH  15  18
ENDBRANCH   9  12
ENDBRANCH   5   8
BRANCH   1  28
HETATM   28  N   UNL     1      16.301  47.349  18.270  1.00  0.00    -0.188 N 
HETATM   29  H   UNL     1      16.328  46.551  17.693  1.00  0.00     0.184 HD
BRANCH  28  30
HETATM   30  C   UNL     1      17.267  47.518  19.250  1.00  0.00     0.727 A 
HETATM   31  N   UNL     1      18.525  47.806  18.858  1.00  0.00    -0.062 NA
HETATM   32  C   UNL     1      19.546  47.979  19.766  1.00  0.00     0.089 A 
HETATM   33  C   UNL     1      19.278  47.857  21.170  1.00  0.00     0.053 A 
HETATM   34  C   UNL     1      17.952  47.556  21.554  1.00  0.00     0.139 A 
HETATM   35  N   UNL     1      16.975  47.391  20.596  1.00  0.00    -0.075 NA
BRANCH  32  36
HETATM   36  C   UNL     1      20.898  48.291  19.203  1.00  0.00     0.011 A 
HETATM   37  C   UNL     1      21.870  47.260  18.859  1.00  0.00     0.017 A 
HETATM   38  C   UNL     1      23.162  47.614  18.318  1.00  0.00     0.020 A 
HETATM   39  C   UNL     1      23.464  49.009  18.131  1.00  0.00     0.116 A 
HETATM   40  N   UNL     1      22.520  49.992  18.465  1.00  0.00    -0.272 NA
HETATM   41  C   UNL     1      21.268  49.681  18.986  1.00  0.00     0.130 A 
ENDBRANCH  32  36
ENDBRANCH  28  30
ENDBRANCH   1  28
TORSDOF 7
ENDMDL
