REMARK VINA RESULT:   -10.893      3.096     12.359
REMARK INTER + INTRA:         -16.346
REMARK INTER:                 -15.380
REMARK INTRA:                  -0.966
REMARK UNBOUND:                -0.996
REMARK  7 active torsions:
REMARK  status: ('A' for Active; 'I' for Inactive)
REMARK    1  A    between atoms: C_1  and  N_2 
REMARK    2  A    between atoms: N_2  and  C_16 
REMARK    3  A    between atoms: C_10  and  N_11 
REMARK       I    between atoms: N_11  and  C_25 
REMARK    4  A    between atoms: N_13  and  C_32 
REMARK    5  A    between atoms: C_17  and  C_20 
REMARK    6  A    between atoms: C_25  and  C_26 
REMARK    7  A    between atoms: C_31  and  C_32 
ROOT
HETATM    1  C   UNL     1      16.930  48.741  17.582  1.00  0.00     0.057 A 
HETATM    2  C   UNL     1      15.616  48.444  18.165  1.00  0.00    -0.035 A 
HETATM    3  C   UNL     1      14.542  49.364  17.919  1.00  0.00     0.011 A 
HETATM    4  C   UNL     1      14.755  50.545  17.118  1.00  0.00     0.030 A 
HETATM    5  C   UNL     1      16.029  50.833  16.548  1.00  0.00     0.037 A 
HETATM    6  C   UNL     1      17.121  49.906  16.796  1.00  0.00     0.060 A 
HETATM    7  C   UNL     1      15.330  47.192  19.025  1.00  0.00     0.050 C 
ENDROOT
BRANCH   5   8
HETATM    8  N   UNL     1      16.161  52.028  15.751  1.00  0.00    -0.323 N 
HETATM    9  C   UNL     1      15.666  52.262  14.479  1.00  0.00     0.256 C 
HETATM   10  O   UNL     1      15.214  51.398  13.743  1.00  0.00    -0.267 OA
HETATM   11  H   UNL     1      16.665  52.767  16.162  1.00  0.00     0.169 HD
BRANCH   9  12
HETATM   12  C   UNL     1      15.690  53.656  13.940  1.00  0.00     0.032 A 
HETATM   13  C   UNL     1      16.920  54.452  13.945  1.00  0.00     0.017 A 
HETATM   14  C   UNL     1      16.911  55.800  13.435  1.00  0.00     0.010 A 
HETATM   15  C   UNL     1      15.667  56.361  12.914  1.00  0.00    -0.033 A 
HETATM   16  C   UNL     1      14.462  55.547  12.916  1.00  0.00     0.010 A 
HETATM   17  C   UNL     1      14.467  54.226  13.416  1.00  0.00     0.017 A 
BRANCH  15  18
HETATM   18  C   UNL     1      15.561  57.797  12.369  1.00  0.00     0.273 C 
BRANCH  18  19
HETATM   19  N   UNL     1      14.296  58.542  12.647  1.00  0.00    -0.064 N 
HETATM   20  C   UNL     1      14.598  59.916  13.191  1.00  0.00     0.263 C 
HETATM   21  C   UNL     1      13.293  60.701  13.506  1.00  0.00     0.262 C 
HETATM   22  N   UNL     1      12.410  60.800  12.271  1.00  0.00    -0.072 N 
HETATM   23  C   UNL     1      12.081  59.413  11.716  1.00  0.00     0.262 C 
HETATM   24  C   UNL     1      11.163  61.541  12.512  1.00  0.00     0.269 C 
HETATM   25  H   UNL     1      12.951  61.326  11.584  1.00  0.00     0.279 HD
HETATM   26  C   UNL     1      13.410  58.651  11.403  1.00  0.00     0.263 C 
HETATM   27  H   UNL     1      13.781  58.009  13.348  1.00  0.00     0.280 HD
ENDBRANCH  18  19
ENDBRANCH  15  18
ENDBRANCH   9  12
ENDBRANCH   5   8
BRANCH   1  28
HETATM   28  N   UNL     1      18.014  47.884  17.788  1.00  0.00    -0.188 N 
HETATM   29  H   UNL     1      18.078  47.047  17.274  1.00  0.00     0.184 HD
BRANCH  28  30
HETATM   30  C   UNL     1      19.002  48.200  18.709  1.00  0.00     0.727 A 
HETATM   31  N   UNL     1      19.980  49.046  18.323  1.00  0.00    -0.062 NA
HETATM   32  C   UNL     1      21.005  49.404  19.171  1.00  0.00     0.089 A 
HETATM   33  C   UNL     1      21.044  48.875  20.504  1.00  0.00     0.053 A 
HETATM   34  C   UNL     1      20.006  47.993  20.882  1.00  0.00     0.139 A 
HETATM   35  N   UNL     1      19.010  47.671  19.986  1.00  0.00    -0.075 NA
BRANCH  32  36
HETATM   36  C   UNL     1      22.032  50.345  18.622  1.00  0.00     0.011 A 
HETATM   37  C   UNL     1      23.306  49.896  18.075  1.00  0.00     0.017 A 
HETATM   38  C   UNL     1      24.263  50.846  17.556  1.00  0.00     0.020 A 
HETATM   39  C   UNL     1      23.926  52.245  17.596  1.00  0.00     0.116 A 
HETATM   40  N   UNL     1      22.696  52.665  18.124  1.00  0.00    -0.272 NA
HETATM   41  C   UNL     1      21.754  51.773  18.628  1.00  0.00     0.130 A 
ENDBRANCH  32  36
ENDBRANCH  28  30
ENDBRANCH   1  28
TORSDOF 7
ENDMDL
