REMARK VINA RESULT:   -10.085      0.000      0.000
REMARK INTER + INTRA:         -14.574
REMARK INTER:                 -14.183
REMARK INTRA:                  -0.391
REMARK UNBOUND:                -0.362
REMARK  7 active torsions:
REMARK  status: ('A' for Active; 'I' for Inactive)
REMARK    1  A    between atoms: C_1  and  N_2 
REMARK    2  A    between atoms: N_2  and  C_16 
REMARK    3  A    between atoms: C_10  and  N_11 
REMARK       I    between atoms: N_11  and  C_25 
REMARK    4  A    between atoms: N_13  and  C_32 
REMARK    5  A    between atoms: C_17  and  C_20 
REMARK    6  A    between atoms: C_25  and  C_26 
REMARK    7  A    between atoms: C_31  and  C_32 
ROOT
HETATM    1  C   UNL     1      15.779  54.683  12.406  1.00  0.00     0.057 A 
HETATM    2  C   UNL     1      16.864  54.551  11.426  1.00  0.00    -0.035 A 
HETATM    3  C   UNL     1      17.859  53.541  11.649  1.00  0.00     0.011 A 
HETATM    4  C   UNL     1      17.789  52.682  12.804  1.00  0.00     0.030 A 
HETATM    5  C   UNL     1      16.735  52.805  13.756  1.00  0.00     0.037 A 
HETATM    6  C   UNL     1      15.724  53.828  13.536  1.00  0.00     0.060 A 
HETATM    7  C   UNL     1      16.985  55.440  10.166  1.00  0.00     0.050 C 
ENDROOT
BRANCH   5   8
HETATM    8  N   UNL     1      16.727  51.904  14.881  1.00  0.00    -0.323 N 
HETATM    9  C   UNL     1      15.731  51.733  15.829  1.00  0.00     0.256 C 
HETATM   10  O   UNL     1      14.780  52.486  15.976  1.00  0.00    -0.267 OA
HETATM   11  H   UNL     1      17.528  51.341  14.989  1.00  0.00     0.169 HD
BRANCH   9  12
HETATM   12  C   UNL     1      15.810  50.564  16.756  1.00  0.00     0.032 A 
HETATM   13  C   UNL     1      17.070  49.846  16.969  1.00  0.00     0.017 A 
HETATM   14  C   UNL     1      17.115  48.711  17.856  1.00  0.00     0.010 A 
HETATM   15  C   UNL     1      15.895  48.288  18.540  1.00  0.00    -0.033 A 
HETATM   16  C   UNL     1      14.660  49.021  18.315  1.00  0.00     0.010 A 
HETATM   17  C   UNL     1      14.612  50.133  17.445  1.00  0.00     0.017 A 
BRANCH  15  18
HETATM   18  C   UNL     1      15.845  47.075  19.488  1.00  0.00     0.273 C 
BRANCH  18  19
HETATM   19  N   UNL     1      17.084  46.760  20.260  1.00  0.00    -0.064 N 
HETATM   20  C   UNL     1      17.345  47.821  21.300  1.00  0.00     0.263 C 
HETATM   21  C   UNL     1      18.643  47.523  22.102  1.00  0.00     0.262 C 
HETATM   22  N   UNL     1      18.573  46.148  22.752  1.00  0.00    -0.072 N 
HETATM   23  C   UNL     1      18.326  45.058  21.708  1.00  0.00     0.262 C 
HETATM   24  C   UNL     1      19.776  45.818  23.531  1.00  0.00     0.269 C 
HETATM   25  H   UNL     1      17.788  46.187  23.401  1.00  0.00     0.279 HD
HETATM   26  C   UNL     1      17.013  45.381  20.922  1.00  0.00     0.263 C 
HETATM   27  H   UNL     1      17.857  46.745  19.595  1.00  0.00     0.280 HD
ENDBRANCH  18  19
ENDBRANCH  15  18
ENDBRANCH   9  12
ENDBRANCH   5   8
BRANCH   1  28
HETATM   28  N   UNL     1      14.782  55.648  12.245  1.00  0.00    -0.188 N 
HETATM   29  H   UNL     1      13.900  55.384  11.895  1.00  0.00     0.184 HD
BRANCH  28  30
HETATM   30  C   UNL     1      15.020  56.974  12.572  1.00  0.00     0.727 A 
HETATM   31  N   UNL     1      14.023  57.863  12.384  1.00  0.00    -0.062 NA
HETATM   32  C   UNL     1      14.178  59.200  12.672  1.00  0.00     0.089 A 
HETATM   33  C   UNL     1      15.429  59.675  13.192  1.00  0.00     0.053 A 
HETATM   34  C   UNL     1      16.456  58.724  13.381  1.00  0.00     0.139 A 
HETATM   35  N   UNL     1      16.238  57.399  13.070  1.00  0.00    -0.075 NA
BRANCH  32  36
HETATM   36  C   UNL     1      12.998  60.084  12.415  1.00  0.00     0.011 A 
HETATM   37  C   UNL     1      12.902  61.447  12.923  1.00  0.00     0.017 A 
HETATM   38  C   UNL     1      11.740  62.259  12.645  1.00  0.00     0.020 A 
HETATM   39  C   UNL     1      10.681  61.686  11.856  1.00  0.00     0.116 A 
HETATM   40  N   UNL     1      10.784  60.374  11.371  1.00  0.00    -0.272 NA
HETATM   41  C   UNL     1      11.892  59.569  11.622  1.00  0.00     0.130 A 
ENDBRANCH  32  36
ENDBRANCH  28  30
ENDBRANCH   1  28
TORSDOF 7
ENDMDL
