USER    Estimated Free Energy of Binding    =   +1.11 kcal/mol  [=(1)+(2)+(3)-(4)]
REMARK  7 active torsions:
REMARK  status: ('A' for Active; 'I' for Inactive)
REMARK    1  A    between atoms: C_1  and  N_2 
REMARK    2  A    between atoms: N_2  and  C_16 
REMARK    3  A    between atoms: C_10  and  N_11 
REMARK       I    between atoms: N_11  and  C_25 
REMARK    4  A    between atoms: N_13  and  C_32 
REMARK    5  A    between atoms: C_17  and  C_20 
REMARK    6  A    between atoms: C_25  and  C_26 
REMARK    7  A    between atoms: C_31  and  C_32 
ROOT
ATOM      1  C   UNL     1      15.010  -3.115   3.305 +0.00 -0.00    +0.057 A 
ATOM      2  C   UNL     1      15.628  -4.338   3.833 +0.00 +0.00    -0.035 A 
ATOM      3  C   UNL     1      16.718  -4.202   4.756 +0.00 -0.00    +0.011 A 
ATOM      4  C   UNL     1      17.188  -2.898   5.152 +0.00 -0.00    +0.030 A 
ATOM      5  C   UNL     1      16.587  -1.709   4.645 +0.00 -0.00    +0.037 A 
ATOM      6  C   UNL     1      15.483  -1.840   3.707 +0.00 -0.00    +0.060 A 
ATOM      7  C   UNL     1      15.162  -5.761   3.448 +0.00 -0.00    +0.050 C 
ENDROOT
BRANCH   5   8
ATOM      8  N   UNL     1      17.106  -0.441   5.095 +0.00 +0.02    -0.323 N 
ATOM      9  C   UNL     1      17.295   0.714   4.353 +0.00 -0.02    +0.256 C 
ATOM     10  O   UNL     1      17.246   0.767   3.134 +0.00 +0.02    -0.267 OA
ATOM     11  H   UNL     1      17.357  -0.390   6.046 +0.00 -0.01    +0.169 HD
BRANCH   9  12
ATOM     12  C   UNL     1      17.596   1.991   5.069 +0.00 -0.00    +0.032 A 
ATOM     13  C   UNL     1      18.051   1.992   6.462 +0.00 -0.00    +0.017 A 
ATOM     14  C   UNL     1      18.318   3.238   7.135 +0.00 -0.00    +0.010 A 
ATOM     15  C   UNL     1      18.133   4.495   6.414 +0.00 +0.00    -0.033 A 
ATOM     16  C   UNL     1      17.686   4.465   5.031 +0.00 -0.00    +0.010 A 
ATOM     17  C   UNL     1      17.422   3.245   4.369 +0.00 -0.00    +0.017 A 
BRANCH  15  18
ATOM     18  C   UNL     1      18.374   5.873   7.058 +0.00 -0.02    +0.273 C 
BRANCH  18  19
ATOM     19  N   UNL     1      19.611   6.607   6.660 +0.00 +0.01    -0.064 N 
ATOM     20  C   UNL     1      20.749   5.643   6.428 +0.00 -0.02    +0.263 C 
ATOM     21  C   UNL     1      22.053   6.390   6.032 +0.00 -0.02    +0.262 C 
ATOM     22  N   UNL     1      21.830   7.255   4.800 +0.00 +0.01    -0.072 N 
ATOM     23  C   UNL     1      20.690   8.250   5.025 +0.00 -0.02    +0.262 C 
ATOM     24  C   UNL     1      23.037   7.979   4.377 +0.00 -0.02    +0.269 C 
ATOM     25  H   UNL     1      21.580   6.610   4.049 +0.00 -0.02    +0.279 HD
ATOM     26  C   UNL     1      19.391   7.471   5.415 +0.00 -0.02    +0.263 C 
ATOM     27  H   UNL     1      19.852   7.230   7.431 +0.00 -0.02    +0.280 HD
ENDBRANCH  18  19
ENDBRANCH  15  18
ENDBRANCH   9  12
ENDBRANCH   5   8
BRANCH   1  28
ATOM     28  N   UNL     1      13.946  -3.183   2.402 +0.00 +0.01    -0.188 N 
ATOM     29  H   UNL     1      13.197  -3.797   2.578 +0.00 -0.01    +0.184 HD
BRANCH  28  30
ATOM     30  C   UNL     1      13.935  -2.396   1.261 +0.00 -0.05    +0.727 A 
ATOM     31  N   UNL     1      14.365  -1.121   1.366 +0.00 +0.00    -0.062 NA
ATOM     32  C   UNL     1      14.376  -0.268   0.285 +0.00 -0.01    +0.089 A 
ATOM     33  C   UNL     1      13.926  -0.735  -0.995 +0.00 -0.00    +0.053 A 
ATOM     34  C   UNL     1      13.483  -2.075  -1.077 +0.00 -0.01    +0.139 A 
ATOM     35  N   UNL     1      13.493  -2.877   0.043 +0.00 +0.01    -0.075 NA
BRANCH  32  36
ATOM     36  C   UNL     1      14.871   1.123   0.533 +0.00 -0.00    +0.011 A 
ATOM     37  C   UNL     1      15.764   1.821  -0.384 +0.00 -0.00    +0.017 A 
ATOM     38  C   UNL     1      16.212   3.164  -0.098 +0.00 -0.00    +0.020 A 
ATOM     39  C   UNL     1      15.758   3.791   1.115 +0.00 -0.01    +0.116 A 
ATOM     40  N   UNL     1      14.897   3.110   1.989 +0.00 +0.02    -0.272 NA
ATOM     41  C   UNL     1      14.448   1.817   1.739 +0.00 -0.01    +0.130 A 
ENDBRANCH  32  36
ENDBRANCH  28  30
ENDBRANCH   1  28
TORSDOF 7
TER
ENDMDL
