USER    Estimated Free Energy of Binding    =   +1.11 kcal/mol  [=(1)+(2)+(3)-(4)]
REMARK  7 active torsions:
REMARK  status: ('A' for Active; 'I' for Inactive)
REMARK    1  A    between atoms: C_1  and  N_2 
REMARK    2  A    between atoms: N_2  and  C_16 
REMARK    3  A    between atoms: C_10  and  N_11 
REMARK       I    between atoms: N_11  and  C_25 
REMARK    4  A    between atoms: N_13  and  C_32 
REMARK    5  A    between atoms: C_17  and  C_20 
REMARK    6  A    between atoms: C_25  and  C_26 
REMARK    7  A    between atoms: C_31  and  C_32 
ROOT
ATOM      1  C   UNL     1      20.684  -2.002  -1.794 +0.00 -0.00    +0.057 A 
ATOM      2  C   UNL     1      21.381  -3.258  -1.493 +0.00 +0.00    -0.035 A 
ATOM      3  C   UNL     1      22.395  -3.243  -0.477 +0.00 -0.00    +0.011 A 
ATOM      4  C   UNL     1      22.713  -2.026   0.227 +0.00 -0.00    +0.030 A 
ATOM      5  C   UNL     1      22.034  -0.806  -0.060 +0.00 -0.00    +0.037 A 
ATOM      6  C   UNL     1      21.008  -0.814  -1.091 +0.00 -0.00    +0.060 A 
ATOM      7  C   UNL     1      21.078  -4.593  -2.211 +0.00 -0.00    +0.050 C 
ENDROOT
BRANCH   5   8
ATOM      8  N   UNL     1      22.401   0.368   0.693 +0.00 +0.02    -0.323 N 
ATOM      9  C   UNL     1      22.423   1.684   0.261 +0.00 -0.02    +0.256 C 
ATOM     10  O   UNL     1      22.334   2.030  -0.908 +0.00 +0.02    -0.267 OA
ATOM     11  H   UNL     1      22.669   0.215   1.628 +0.00 -0.01    +0.169 HD
BRANCH   9  12
ATOM     12  C   UNL     1      22.580   2.774   1.272 +0.00 -0.00    +0.032 A 
ATOM     13  C   UNL     1      23.152   2.506   2.594 +0.00 -0.00    +0.017 A 
ATOM     14  C   UNL     1      23.277   3.572   3.557 +0.00 -0.00    +0.010 A 
ATOM     15  C   UNL     1      22.829   4.916   3.200 +0.00 +0.00    -0.033 A 
ATOM     16  C   UNL     1      22.269   5.154   1.880 +0.00 -0.00    +0.010 A 
ATOM     17  C   UNL     1      22.145   4.112   0.934 +0.00 -0.00    +0.017 A 
BRANCH  15  18
ATOM     18  C   UNL     1      22.904   6.108   4.172 +0.00 -0.02    +0.273 C 
BRANCH  18  19
ATOM     19  N   UNL     1      21.622   6.582   4.773 +0.00 +0.01    -0.064 N 
ATOM     20  C   UNL     1      21.005   7.665   3.922 +0.00 -0.02    +0.263 C 
ATOM     21  C   UNL     1      19.679   8.187   4.541 +0.00 -0.02    +0.262 C 
ATOM     22  N   UNL     1      18.692   7.047   4.749 +0.00 +0.01    -0.072 N 
ATOM     23  C   UNL     1      19.297   5.949   5.625 +0.00 -0.02    +0.262 C 
ATOM     24  C   UNL     1      17.415   7.489   5.327 +0.00 -0.02    +0.269 C 
ATOM     25  H   UNL     1      18.497   6.677   3.818 +0.00 -0.02    +0.279 HD
ATOM     26  C   UNL     1      20.624   5.439   4.974 +0.00 -0.02    +0.263 C 
ATOM     27  H   UNL     1      21.845   6.965   5.692 +0.00 -0.02    +0.280 HD
ENDBRANCH  18  19
ENDBRANCH  15  18
ENDBRANCH   9  12
ENDBRANCH   5   8
BRANCH   1  28
ATOM     28  N   UNL     1      19.690  -1.952  -2.774 +0.00 +0.01    -0.188 N 
ATOM     29  H   UNL     1      19.040  -2.689  -2.847 +0.00 -0.01    +0.184 HD
BRANCH  28  30
ATOM     30  C   UNL     1      19.607  -0.877  -3.646 +0.00 -0.05    +0.727 A 
ATOM     31  N   UNL     1      19.706   0.366  -3.131 +0.00 +0.00    -0.062 NA
ATOM     32  C   UNL     1      19.623   1.488  -3.925 +0.00 -0.01    +0.089 A 
ATOM     33  C   UNL     1      19.433   1.347  -5.340 +0.00 -0.00    +0.053 A 
ATOM     34  C   UNL     1      19.335   0.034  -5.853 +0.00 -0.01    +0.139 A 
ATOM     35  N   UNL     1      19.422  -1.049  -5.006 +0.00 +0.01    -0.075 NA
BRANCH  32  36
ATOM     36  C   UNL     1      19.742   2.810  -3.231 +0.00 -0.00    +0.011 A 
ATOM     37  C   UNL     1      20.209   4.017  -3.902 +0.00 -0.00    +0.017 A 
ATOM     38  C   UNL     1      20.305   5.269  -3.186 +0.00 -0.00    +0.020 A 
ATOM     39  C   UNL     1      19.930   5.291  -1.797 +0.00 -0.01    +0.116 A 
ATOM     40  N   UNL     1      19.480   4.123  -1.163 +0.00 +0.02    -0.272 NA
ATOM     41  C   UNL     1      19.376   2.904  -1.826 +0.00 -0.01    +0.130 A 
ENDBRANCH  32  36
ENDBRANCH  28  30
ENDBRANCH   1  28
TORSDOF 7
TER
ENDMDL
