USER    Estimated Free Energy of Binding    =   +1.11 kcal/mol  [=(1)+(2)+(3)-(4)]
REMARK  7 active torsions:
REMARK  status: ('A' for Active; 'I' for Inactive)
REMARK    1  A    between atoms: C_1  and  N_2 
REMARK    2  A    between atoms: N_2  and  C_16 
REMARK    3  A    between atoms: C_10  and  N_11 
REMARK       I    between atoms: N_11  and  C_25 
REMARK    4  A    between atoms: N_13  and  C_32 
REMARK    5  A    between atoms: C_17  and  C_20 
REMARK    6  A    between atoms: C_25  and  C_26 
REMARK    7  A    between atoms: C_31  and  C_32 
ROOT
ATOM      1  C   UNL     1      19.700   2.859  -1.502 +0.00 -0.00    +0.057 A 
ATOM      2  C   UNL     1      20.012   1.605  -2.199 +0.00 +0.00    -0.035 A 
ATOM      3  C   UNL     1      19.265   0.431  -1.849 +0.00 -0.00    +0.011 A 
ATOM      4  C   UNL     1      18.235   0.488  -0.841 +0.00 -0.00    +0.030 A 
ATOM      5  C   UNL     1      17.927   1.705  -0.165 +0.00 -0.00    +0.037 A 
ATOM      6  C   UNL     1      18.683   2.898  -0.514 +0.00 -0.00    +0.060 A 
ATOM      7  C   UNL     1      21.100   1.487  -3.291 +0.00 -0.00    +0.050 C 
ENDROOT
BRANCH   5   8
ATOM      8  N   UNL     1      16.878   1.686   0.823 +0.00 +0.02    -0.323 N 
ATOM      9  C   UNL     1      16.824   2.379   2.021 +0.00 -0.02    +0.256 C 
ATOM     10  O   UNL     1      17.773   2.961   2.527 +0.00 +0.02    -0.267 OA
ATOM     11  H   UNL     1      16.106   1.108   0.623 +0.00 -0.01    +0.169 HD
BRANCH   9  12
ATOM     12  C   UNL     1      15.533   2.421   2.774 +0.00 -0.00    +0.032 A 
ATOM     13  C   UNL     1      14.256   2.151   2.108 +0.00 -0.00    +0.017 A 
ATOM     14  C   UNL     1      13.024   2.214   2.854 +0.00 -0.00    +0.010 A 
ATOM     15  C   UNL     1      13.064   2.548   4.276 +0.00 +0.00    -0.033 A 
ATOM     16  C   UNL     1      14.345   2.807   4.912 +0.00 -0.00    +0.010 A 
ATOM     17  C   UNL     1      15.555   2.746   4.184 +0.00 -0.00    +0.017 A 
BRANCH  15  18
ATOM     18  C   UNL     1      11.797   2.659   5.144 +0.00 -0.02    +0.273 C 
BRANCH  18  19
ATOM     19  N   UNL     1      11.369   4.029   5.557 +0.00 +0.00    -0.064 N 
ATOM     20  C   UNL     1      11.927   4.373   6.916 +0.00 -0.02    +0.263 C 
ATOM     21  C   UNL     1      11.476   5.788   7.374 +0.00 -0.02    +0.262 C 
ATOM     22  N   UNL     1      11.879   6.841   6.352 +0.00 +0.01    -0.072 N 
ATOM     23  C   UNL     1      11.305   6.516   4.972 +0.00 -0.02    +0.262 C 
ATOM     24  C   UNL     1      11.481   8.202   6.740 +0.00 -0.02    +0.269 C 
ATOM     25  H   UNL     1      12.898   6.818   6.315 +0.00 -0.02    +0.279 HD
ATOM     26  C   UNL     1      11.781   5.092   4.535 +0.00 -0.02    +0.263 C 
ATOM     27  H   UNL     1      10.350   4.023   5.605 +0.00 -0.02    +0.280 HD
ENDBRANCH  18  19
ENDBRANCH  15  18
ENDBRANCH   9  12
ENDBRANCH   5   8
BRANCH   1  28
ATOM     28  N   UNL     1      20.395   4.034  -1.798 +0.00 +0.01    -0.188 N 
ATOM     29  H   UNL     1      20.585   4.264  -2.736 +0.00 -0.01    +0.184 HD
BRANCH  28  30
ATOM     30  C   UNL     1      20.821   4.879  -0.784 +0.00 -0.06    +0.727 A 
ATOM     31  N   UNL     1      19.958   5.154   0.216 +0.00 +0.00    -0.062 NA
ATOM     32  C   UNL     1      20.296   5.992   1.255 +0.00 -0.01    +0.089 A 
ATOM     33  C   UNL     1      21.598   6.592   1.291 +0.00 -0.00    +0.053 A 
ATOM     34  C   UNL     1      22.483   6.287   0.232 +0.00 -0.01    +0.139 A 
ATOM     35  N   UNL     1      22.083   5.443  -0.782 +0.00 +0.01    -0.075 NA
BRANCH  32  36
ATOM     36  C   UNL     1      19.248   6.221   2.300 +0.00 -0.00    +0.011 A 
ATOM     37  C   UNL     1      19.565   6.625   3.664 +0.00 -0.00    +0.017 A 
ATOM     38  C   UNL     1      18.515   6.833   4.635 +0.00 -0.00    +0.020 A 
ATOM     39  C   UNL     1      17.152   6.628   4.221 +0.00 -0.01    +0.116 A 
ATOM     40  N   UNL     1      16.860   6.240   2.905 +0.00 +0.02    -0.272 NA
ATOM     41  C   UNL     1      17.849   6.034   1.948 +0.00 -0.01    +0.130 A 
ENDBRANCH  32  36
ENDBRANCH  28  30
ENDBRANCH   1  28
TORSDOF 7
TER
ENDMDL
