REMARK VINA RESULT:    -9.232      2.125      3.228
REMARK INTER + INTRA:         -13.675
REMARK INTER:                 -13.120
REMARK INTRA:                  -0.555
REMARK UNBOUND:                -0.666
REMARK  7 active torsions:
REMARK  status: ('A' for Active; 'I' for Inactive)
REMARK    1  A    between atoms: C_1  and  N_2 
REMARK    2  A    between atoms: N_2  and  C_16 
REMARK    3  A    between atoms: C_10  and  N_11 
REMARK       I    between atoms: N_11  and  C_25 
REMARK    4  A    between atoms: N_13  and  C_32 
REMARK    5  A    between atoms: C_17  and  C_20 
REMARK    6  A    between atoms: C_25  and  C_26 
REMARK    7  A    between atoms: C_31  and  C_32 
ROOT
HETATM    1  C   UNL     1      17.652  47.283  19.223  1.00  0.00     0.057 A 
HETATM    2  C   UNL     1      16.390  46.861  19.843  1.00  0.00    -0.035 A 
HETATM    3  C   UNL     1      15.173  47.463  19.379  1.00  0.00     0.011 A 
HETATM    4  C   UNL     1      15.195  48.453  18.332  1.00  0.00     0.030 A 
HETATM    5  C   UNL     1      16.418  48.863  17.725  1.00  0.00     0.037 A 
HETATM    6  C   UNL     1      17.655  48.258  18.193  1.00  0.00     0.060 A 
HETATM    7  C   UNL     1      16.306  45.800  20.965  1.00  0.00     0.050 C 
ENDROOT
BRANCH   5   8
HETATM    8  N   UNL     1      16.358  49.851  16.677  1.00  0.00    -0.323 N 
HETATM    9  C   UNL     1      15.396  50.829  16.482  1.00  0.00     0.256 C 
HETATM   10  O   UNL     1      14.321  50.865  17.061  1.00  0.00    -0.267 OA
HETATM   11  H   UNL     1      17.091  49.828  16.020  1.00  0.00     0.169 HD
BRANCH   9  12
HETATM   12  C   UNL     1      15.661  51.915  15.490  1.00  0.00     0.032 A 
HETATM   13  C   UNL     1      16.739  51.797  14.504  1.00  0.00     0.017 A 
HETATM   14  C   UNL     1      16.984  52.867  13.570  1.00  0.00     0.010 A 
HETATM   15  C   UNL     1      16.148  54.064  13.615  1.00  0.00    -0.033 A 
HETATM   16  C   UNL     1      15.082  54.152  14.600  1.00  0.00     0.010 A 
HETATM   17  C   UNL     1      14.840  53.106  15.518  1.00  0.00     0.017 A 
BRANCH  15  18
HETATM   18  C   UNL     1      16.351  55.263  12.671  1.00  0.00     0.273 C 
BRANCH  18  19
HETATM   19  N   UNL     1      15.703  56.553  13.054  1.00  0.00    -0.064 N 
HETATM   20  C   UNL     1      16.701  57.683  13.002  1.00  0.00     0.263 C 
HETATM   21  C   UNL     1      16.051  59.033  13.418  1.00  0.00     0.262 C 
HETATM   22  N   UNL     1      14.847  59.346  12.542  1.00  0.00    -0.072 N 
HETATM   23  C   UNL     1      13.818  58.216  12.596  1.00  0.00     0.262 C 
HETATM   24  C   UNL     1      14.197  60.619  12.888  1.00  0.00     0.269 C 
HETATM   25  H   UNL     1      15.210  59.435  11.592  1.00  0.00     0.279 HD
HETATM   26  C   UNL     1      14.497  56.875  12.167  1.00  0.00     0.263 C 
HETATM   27  H   UNL     1      15.366  56.447  14.010  1.00  0.00     0.280 HD
ENDBRANCH  18  19
ENDBRANCH  15  18
ENDBRANCH   9  12
ENDBRANCH   5   8
BRANCH   1  28
HETATM   28  N   UNL     1      18.870  46.735  19.633  1.00  0.00    -0.188 N 
HETATM   29  H   UNL     1      18.904  45.800  19.938  1.00  0.00     0.184 HD
BRANCH  28  30
HETATM   30  C   UNL     1      20.030  47.495  19.617  1.00  0.00     0.727 A 
HETATM   31  N   UNL     1      20.255  48.330  20.652  1.00  0.00    -0.062 NA
HETATM   32  C   UNL     1      21.376  49.128  20.709  1.00  0.00     0.089 A 
HETATM   33  C   UNL     1      22.342  49.075  19.649  1.00  0.00     0.053 A 
HETATM   34  C   UNL     1      22.082  48.191  18.578  1.00  0.00     0.139 A 
HETATM   35  N   UNL     1      20.939  47.421  18.578  1.00  0.00    -0.075 NA
BRANCH  32  36
HETATM   36  C   UNL     1      21.508  50.015  21.908  1.00  0.00     0.011 A 
HETATM   37  C   UNL     1      22.378  51.184  21.936  1.00  0.00     0.017 A 
HETATM   38  C   UNL     1      22.468  52.009  23.119  1.00  0.00     0.020 A 
HETATM   39  C   UNL     1      21.679  51.644  24.267  1.00  0.00     0.116 A 
HETATM   40  N   UNL     1      20.844  50.518  24.227  1.00  0.00    -0.272 NA
HETATM   41  C   UNL     1      20.736  49.706  23.102  1.00  0.00     0.130 A 
ENDBRANCH  32  36
ENDBRANCH  28  30
ENDBRANCH   1  28
TORSDOF 7
ENDMDL
