USER    Estimated Free Energy of Binding    =   +1.11 kcal/mol  [=(1)+(2)+(3)-(4)]
REMARK  7 active torsions:
REMARK  status: ('A' for Active; 'I' for Inactive)
REMARK    1  A    between atoms: C_1  and  N_2 
REMARK    2  A    between atoms: N_2  and  C_16 
REMARK    3  A    between atoms: C_10  and  N_11 
REMARK       I    between atoms: N_11  and  C_25 
REMARK    4  A    between atoms: N_13  and  C_32 
REMARK    5  A    between atoms: C_17  and  C_20 
REMARK    6  A    between atoms: C_25  and  C_26 
REMARK    7  A    between atoms: C_31  and  C_32 
ROOT
ATOM      1  C   UNL     1      15.897  -3.320   5.454 +0.00 -0.00    +0.057 A 
ATOM      2  C   UNL     1      16.661  -4.392   6.103 +0.00 +0.00    -0.035 A 
ATOM      3  C   UNL     1      17.898  -4.050   6.744 +0.00 -0.00    +0.011 A 
ATOM      4  C   UNL     1      18.371  -2.688   6.750 +0.00 -0.00    +0.030 A 
ATOM      5  C   UNL     1      17.630  -1.644   6.124 +0.00 -0.00    +0.037 A 
ATOM      6  C   UNL     1      16.376  -1.985   5.470 +0.00 -0.00    +0.060 A 
ATOM      7  C   UNL     1      16.199  -5.868   6.133 +0.00 -0.00    +0.050 C 
ENDROOT
BRANCH   5   8
ATOM      8  N   UNL     1      18.163  -0.305   6.179 +0.00 +0.02    -0.323 N 
ATOM      9  C   UNL     1      18.073   0.688   5.217 +0.00 -0.02    +0.256 C 
ATOM     10  O   UNL     1      17.702   0.504   4.067 +0.00 +0.02    -0.267 OA
ATOM     11  H   UNL     1      18.650  -0.068   7.001 +0.00 -0.01    +0.169 HD
BRANCH   9  12
ATOM     12  C   UNL     1      18.466   2.083   5.581 +0.00 -0.00    +0.032 A 
ATOM     13  C   UNL     1      19.232   2.364   6.798 +0.00 -0.00    +0.017 A 
ATOM     14  C   UNL     1      19.583   3.721   7.135 +0.00 -0.00    +0.010 A 
ATOM     15  C   UNL     1      19.170   4.808   6.250 +0.00 +0.00    -0.033 A 
ATOM     16  C   UNL     1      18.416   4.500   5.046 +0.00 -0.00    +0.010 A 
ATOM     17  C   UNL     1      18.069   3.172   4.714 +0.00 -0.00    +0.017 A 
BRANCH  15  18
ATOM     18  C   UNL     1      19.483   6.288   6.541 +0.00 -0.02    +0.273 C 
BRANCH  18  19
ATOM     19  N   UNL     1      20.545   6.937   5.716 +0.00 +0.01    -0.064 N 
ATOM     20  C   UNL     1      21.652   5.959   5.411 +0.00 -0.02    +0.263 C 
ATOM     21  C   UNL     1      22.779   6.622   4.570 +0.00 -0.02    +0.262 C 
ATOM     22  N   UNL     1      22.219   7.209   3.283 +0.00 +0.01    -0.072 N 
ATOM     23  C   UNL     1      21.105   8.216   3.576 +0.00 -0.02    +0.262 C 
ATOM     24  C   UNL     1      23.246   7.843   2.444 +0.00 -0.02    +0.269 C 
ATOM     25  H   UNL     1      21.839   6.420   2.759 +0.00 -0.02    +0.279 HD
ATOM     26  C   UNL     1      19.985   7.521   4.416 +0.00 -0.02    +0.263 C 
ATOM     27  H   UNL     1      20.921   7.710   6.266 +0.00 -0.02    +0.280 HD
ENDBRANCH  18  19
ENDBRANCH  15  18
ENDBRANCH   9  12
ENDBRANCH   5   8
BRANCH   1  28
ATOM     28  N   UNL     1      14.687  -3.591   4.811 +0.00 +0.01    -0.188 N 
ATOM     29  H   UNL     1      14.031  -4.189   5.239 +0.00 -0.01    +0.184 HD
BRANCH  28  30
ATOM     30  C   UNL     1      14.398  -3.029   3.577 +0.00 -0.05    +0.727 A 
ATOM     31  N   UNL     1      14.681  -1.723   3.394 +0.00 +0.00    -0.062 NA
ATOM     32  C   UNL     1      14.417  -1.083   2.204 +0.00 -0.01    +0.089 A 
ATOM     33  C   UNL     1      13.828  -1.814   1.119 +0.00 -0.00    +0.053 A 
ATOM     34  C   UNL     1      13.542  -3.180   1.337 +0.00 -0.01    +0.139 A 
ATOM     35  N   UNL     1      13.828  -3.762   2.553 +0.00 +0.01    -0.075 NA
BRANCH  32  36
ATOM     36  C   UNL     1      14.773   0.369   2.129 +0.00 -0.00    +0.011 A 
ATOM     37  C   UNL     1      15.232   1.010   0.903 +0.00 -0.00    +0.017 A 
ATOM     38  C   UNL     1      15.563   2.417   0.884 +0.00 -0.00    +0.020 A 
ATOM     39  C   UNL     1      15.430   3.165   2.106 +0.00 -0.01    +0.116 A 
ATOM     40  N   UNL     1      14.987   2.537   3.280 +0.00 +0.02    -0.272 NA
ATOM     41  C   UNL     1      14.659   1.186   3.328 +0.00 -0.01    +0.130 A 
ENDBRANCH  32  36
ENDBRANCH  28  30
ENDBRANCH   1  28
TORSDOF 7
TER
ENDMDL
