REMARK VINA RESULT:    -9.238      3.268     11.432
REMARK INTER + INTRA:         -13.684
REMARK INTER:                 -13.879
REMARK INTRA:                   0.195
REMARK UNBOUND:                -0.666
REMARK  7 active torsions:
REMARK  status: ('A' for Active; 'I' for Inactive)
REMARK    1  A    between atoms: C_1  and  N_2 
REMARK    2  A    between atoms: N_2  and  C_16 
REMARK    3  A    between atoms: C_10  and  N_11 
REMARK       I    between atoms: N_11  and  C_25 
REMARK    4  A    between atoms: N_13  and  C_32 
REMARK    5  A    between atoms: C_17  and  C_20 
REMARK    6  A    between atoms: C_25  and  C_26 
REMARK    7  A    between atoms: C_31  and  C_32 
ROOT
HETATM    1  C   UNL     1      17.439  53.849  13.721  1.00  0.00     0.057 A 
HETATM    2  C   UNL     1      16.650  53.688  12.494  1.00  0.00    -0.035 A 
HETATM    3  C   UNL     1      15.566  52.747  12.503  1.00  0.00     0.011 A 
HETATM    4  C   UNL     1      15.264  51.986  13.689  1.00  0.00     0.030 A 
HETATM    5  C   UNL     1      16.025  52.142  14.884  1.00  0.00     0.037 A 
HETATM    6  C   UNL     1      17.127  53.092  14.880  1.00  0.00     0.060 A 
HETATM    7  C   UNL     1      16.926  54.482  11.195  1.00  0.00     0.050 C 
ENDROOT
BRANCH   5   8
HETATM    8  N   UNL     1      15.657  51.353  16.032  1.00  0.00    -0.323 N 
HETATM    9  C   UNL     1      14.882  50.205  16.063  1.00  0.00     0.256 C 
HETATM   10  O   UNL     1      14.208  49.801  15.128  1.00  0.00    -0.267 OA
HETATM   11  H   UNL     1      15.997  51.668  16.901  1.00  0.00     0.169 HD
BRANCH   9  12
HETATM   12  C   UNL     1      14.838  49.396  17.320  1.00  0.00     0.032 A 
HETATM   13  C   UNL     1      14.069  49.842  18.484  1.00  0.00     0.017 A 
HETATM   14  C   UNL     1      14.058  49.052  19.690  1.00  0.00     0.010 A 
HETATM   15  C   UNL     1      14.819  47.806  19.736  1.00  0.00    -0.033 A 
HETATM   16  C   UNL     1      15.569  47.385  18.565  1.00  0.00     0.010 A 
HETATM   17  C   UNL     1      15.583  48.157  17.382  1.00  0.00     0.017 A 
BRANCH  15  18
HETATM   18  C   UNL     1      14.881  46.910  20.987  1.00  0.00     0.273 C 
BRANCH  18  19
HETATM   19  N   UNL     1      16.232  46.619  21.553  1.00  0.00    -0.064 N 
HETATM   20  C   UNL     1      16.803  45.362  20.945  1.00  0.00     0.263 C 
HETATM   21  C   UNL     1      18.201  45.030  21.536  1.00  0.00     0.262 C 
HETATM   22  N   UNL     1      19.161  46.196  21.345  1.00  0.00    -0.072 N 
HETATM   23  C   UNL     1      18.603  47.475  21.973  1.00  0.00     0.262 C 
HETATM   24  C   UNL     1      20.504  45.932  21.882  1.00  0.00     0.269 C 
HETATM   25  H   UNL     1      19.252  46.319  20.337  1.00  0.00     0.279 HD
HETATM   26  C   UNL     1      17.202  47.788  21.355  1.00  0.00     0.263 C 
HETATM   27  H   UNL     1      16.114  46.482  22.557  1.00  0.00     0.280 HD
ENDBRANCH  18  19
ENDBRANCH  15  18
ENDBRANCH   9  12
ENDBRANCH   5   8
BRANCH   1  28
HETATM   28  N   UNL     1      18.508  54.747  13.773  1.00  0.00    -0.188 N 
HETATM   29  H   UNL     1      19.426  54.420  13.629  1.00  0.00     0.184 HD
BRANCH  28  30
HETATM   30  C   UNL     1      18.291  56.093  14.024  1.00  0.00     0.727 A 
HETATM   31  N   UNL     1      17.148  56.646  13.570  1.00  0.00    -0.062 NA
HETATM   32  C   UNL     1      16.859  57.978  13.766  1.00  0.00     0.089 A 
HETATM   33  C   UNL     1      17.787  58.811  14.476  1.00  0.00     0.053 A 
HETATM   34  C   UNL     1      18.975  58.205  14.943  1.00  0.00     0.139 A 
HETATM   35  N   UNL     1      19.208  56.867  14.711  1.00  0.00    -0.075 NA
BRANCH  32  36
HETATM   36  C   UNL     1      15.560  58.472  13.208  1.00  0.00     0.011 A 
HETATM   37  C   UNL     1      15.105  59.848  13.361  1.00  0.00     0.017 A 
HETATM   38  C   UNL     1      13.842  60.275  12.802  1.00  0.00     0.020 A 
HETATM   39  C   UNL     1      13.048  59.306  12.094  1.00  0.00     0.116 A 
HETATM   40  N   UNL     1      13.498  57.984  11.951  1.00  0.00    -0.272 NA
HETATM   41  C   UNL     1      14.709  57.546  12.477  1.00  0.00     0.130 A 
ENDBRANCH  32  36
ENDBRANCH  28  30
ENDBRANCH   1  28
TORSDOF 7
ENDMDL
