REMARK VINA RESULT:    -9.549      2.804     12.459
REMARK INTER + INTRA:         -14.123
REMARK INTER:                 -13.170
REMARK INTRA:                  -0.953
REMARK UNBOUND:                -0.666
REMARK  7 active torsions:
REMARK  status: ('A' for Active; 'I' for Inactive)
REMARK    1  A    between atoms: C_1  and  N_2 
REMARK    2  A    between atoms: N_2  and  C_16 
REMARK    3  A    between atoms: C_10  and  N_11 
REMARK       I    between atoms: N_11  and  C_25 
REMARK    4  A    between atoms: N_13  and  C_32 
REMARK    5  A    between atoms: C_17  and  C_20 
REMARK    6  A    between atoms: C_25  and  C_26 
REMARK    7  A    between atoms: C_31  and  C_32 
ROOT
HETATM    1  C   UNL     1      16.531  55.141  12.849  1.00  0.00     0.057 A 
HETATM    2  C   UNL     1      17.121  54.615  11.612  1.00  0.00    -0.035 A 
HETATM    3  C   UNL     1      17.626  53.272  11.620  1.00  0.00     0.011 A 
HETATM    4  C   UNL     1      17.551  52.465  12.812  1.00  0.00     0.030 A 
HETATM    5  C   UNL     1      16.976  52.971  14.014  1.00  0.00     0.037 A 
HETATM    6  C   UNL     1      16.465  54.333  14.013  1.00  0.00     0.060 A 
HETATM    7  C   UNL     1      17.221  55.433  10.303  1.00  0.00     0.050 C 
ENDROOT
BRANCH   5   8
HETATM    8  N   UNL     1      16.929  52.101  15.163  1.00  0.00    -0.323 N 
HETATM    9  C   UNL     1      15.838  51.408  15.661  1.00  0.00     0.256 C 
HETATM   10  O   UNL     1      14.681  51.599  15.318  1.00  0.00    -0.267 OA
HETATM   11  H   UNL     1      17.775  51.987  15.653  1.00  0.00     0.169 HD
BRANCH   9  12
HETATM   12  C   UNL     1      16.064  50.359  16.703  1.00  0.00     0.032 A 
HETATM   13  C   UNL     1      17.400  50.107  17.250  1.00  0.00     0.017 A 
HETATM   14  C   UNL     1      17.593  49.078  18.241  1.00  0.00     0.010 A 
HETATM   15  C   UNL     1      16.445  48.295  18.692  1.00  0.00    -0.033 A 
HETATM   16  C   UNL     1      15.131  48.570  18.137  1.00  0.00     0.010 A 
HETATM   17  C   UNL     1      14.938  49.576  17.165  1.00  0.00     0.017 A 
BRANCH  15  18
HETATM   18  C   UNL     1      16.562  47.163  19.731  1.00  0.00     0.273 C 
BRANCH  18  19
HETATM   19  N   UNL     1      17.907  46.923  20.333  1.00  0.00    -0.064 N 
HETATM   20  C   UNL     1      18.046  47.668  21.637  1.00  0.00     0.263 C 
HETATM   21  C   UNL     1      19.448  47.449  22.270  1.00  0.00     0.262 C 
HETATM   22  N   UNL     1      19.724  45.965  22.473  1.00  0.00    -0.072 N 
HETATM   23  C   UNL     1      19.604  45.198  21.155  1.00  0.00     0.262 C 
HETATM   24  C   UNL     1      21.038  45.701  23.078  1.00  0.00     0.269 C 
HETATM   25  H   UNL     1      19.013  45.638  23.128  1.00  0.00     0.279 HD
HETATM   26  C   UNL     1      18.184  45.432  20.546  1.00  0.00     0.263 C 
HETATM   27  H   UNL     1      18.599  47.275  19.671  1.00  0.00     0.280 HD
ENDBRANCH  18  19
ENDBRANCH  15  18
ENDBRANCH   9  12
ENDBRANCH   5   8
BRANCH   1  28
HETATM   28  N   UNL     1      16.025  56.442  12.905  1.00  0.00    -0.188 N 
HETATM   29  H   UNL     1      16.611  57.181  13.187  1.00  0.00     0.184 HD
BRANCH  28  30
HETATM   30  C   UNL     1      14.706  56.704  12.567  1.00  0.00     0.727 A 
HETATM   31  N   UNL     1      14.281  57.983  12.616  1.00  0.00    -0.062 NA
HETATM   32  C   UNL     1      12.984  58.330  12.307  1.00  0.00     0.089 A 
HETATM   33  C   UNL     1      12.050  57.313  11.918  1.00  0.00     0.053 A 
HETATM   34  C   UNL     1      12.521  55.982  11.874  1.00  0.00     0.139 A 
HETATM   35  N   UNL     1      13.830  55.699  12.197  1.00  0.00    -0.075 NA
BRANCH  32  36
HETATM   36  C   UNL     1      12.637  59.783  12.405  1.00  0.00     0.011 A 
HETATM   37  C   UNL     1      11.489  60.370  11.725  1.00  0.00     0.017 A 
HETATM   38  C   UNL     1      11.197  61.779  11.852  1.00  0.00     0.020 A 
HETATM   39  C   UNL     1      12.070  62.586  12.664  1.00  0.00     0.116 A 
HETATM   40  N   UNL     1      13.171  62.009  13.315  1.00  0.00    -0.272 NA
HETATM   41  C   UNL     1      13.475  60.656  13.212  1.00  0.00     0.130 A 
ENDBRANCH  32  36
ENDBRANCH  28  30
ENDBRANCH   1  28
TORSDOF 7
ENDMDL
