USER    Estimated Free Energy of Binding    =   +1.10 kcal/mol  [=(1)+(2)+(3)-(4)]
REMARK  7 active torsions:
REMARK  status: ('A' for Active; 'I' for Inactive)
REMARK    1  A    between atoms: C_1  and  N_2 
REMARK    2  A    between atoms: N_2  and  C_16 
REMARK    3  A    between atoms: C_10  and  N_11 
REMARK       I    between atoms: N_11  and  C_25 
REMARK    4  A    between atoms: N_13  and  C_32 
REMARK    5  A    between atoms: C_17  and  C_20 
REMARK    6  A    between atoms: C_25  and  C_26 
REMARK    7  A    between atoms: C_31  and  C_32 
ROOT
ATOM      1  C   UNL     1      15.616  -3.740   4.941 +0.00 -0.00    +0.057 A 
ATOM      2  C   UNL     1      15.376  -4.171   6.324 +0.00 +0.00    -0.035 A 
ATOM      3  C   UNL     1      15.604  -3.225   7.378 +0.00 -0.00    +0.011 A 
ATOM      4  C   UNL     1      16.055  -1.888   7.081 +0.00 -0.00    +0.030 A 
ATOM      5  C   UNL     1      16.286  -1.465   5.739 +0.00 -0.00    +0.037 A 
ATOM      6  C   UNL     1      16.059  -2.421   4.667 +0.00 -0.00    +0.060 A 
ATOM      7  C   UNL     1      14.887  -5.589   6.700 +0.00 -0.00    +0.050 C 
ENDROOT
BRANCH   5   8
ATOM      8  N   UNL     1      16.726  -0.110   5.521 +0.00 +0.02    -0.323 N 
ATOM      9  C   UNL     1      17.583   0.360   4.538 +0.00 -0.02    +0.256 C 
ATOM     10  O   UNL     1      18.272  -0.354   3.824 +0.00 +0.02    -0.267 OA
ATOM     11  H   UNL     1      16.376   0.565   6.147 +0.00 -0.01    +0.169 HD
BRANCH   9  12
ATOM     12  C   UNL     1      17.702   1.835   4.329 +0.00 -0.00    +0.032 A 
ATOM     13  C   UNL     1      17.452   2.780   5.420 +0.00 -0.00    +0.017 A 
ATOM     14  C   UNL     1      17.557   4.198   5.186 +0.00 -0.00    +0.010 A 
ATOM     15  C   UNL     1      17.916   4.680   3.854 +0.00 +0.00    -0.033 A 
ATOM     16  C   UNL     1      18.163   3.720   2.791 +0.00 -0.00    +0.010 A 
ATOM     17  C   UNL     1      18.060   2.329   3.016 +0.00 -0.00    +0.017 A 
BRANCH  15  18
ATOM     18  C   UNL     1      18.030   6.177   3.508 +0.00 -0.02    +0.273 C 
BRANCH  18  19
ATOM     19  N   UNL     1      19.196   6.921   4.071 +0.00 +0.01    -0.064 N 
ATOM     20  C   UNL     1      18.884   7.426   5.458 +0.00 -0.02    +0.263 C 
ATOM     21  C   UNL     1      20.079   8.222   6.054 +0.00 -0.02    +0.262 C 
ATOM     22  N   UNL     1      21.342   7.373   6.069 +0.00 +0.01    -0.072 N 
ATOM     23  C   UNL     1      21.681   6.867   4.666 +0.00 -0.02    +0.262 C 
ATOM     24  C   UNL     1      22.503   8.077   6.631 +0.00 -0.02    +0.269 C 
ATOM     25  H   UNL     1      21.137   6.582   6.680 +0.00 -0.02    +0.279 HD
ATOM     26  C   UNL     1      20.466   6.066   4.096 +0.00 -0.02    +0.263 C 
ATOM     27  H   UNL     1      19.370   7.716   3.456 +0.00 -0.02    +0.280 HD
ENDBRANCH  18  19
ENDBRANCH  15  18
ENDBRANCH   9  12
ENDBRANCH   5   8
BRANCH   1  28
ATOM     28  N   UNL     1      15.415  -4.617   3.873 +0.00 +0.01    -0.188 N 
ATOM     29  H   UNL     1      14.613  -5.189   3.858 +0.00 -0.01    +0.184 HD
BRANCH  28  30
ATOM     30  C   UNL     1      16.329  -4.690   2.833 +0.00 -0.05    +0.727 A 
ATOM     31  N   UNL     1      16.804  -3.534   2.325 +0.00 +0.00    -0.062 NA
ATOM     32  C   UNL     1      17.707  -3.516   1.285 +0.00 -0.01    +0.089 A 
ATOM     33  C   UNL     1      18.167  -4.752   0.720 +0.00 -0.00    +0.053 A 
ATOM     34  C   UNL     1      17.655  -5.948   1.273 +0.00 -0.01    +0.139 A 
ATOM     35  N   UNL     1      16.751  -5.899   2.311 +0.00 +0.00    -0.075 NA
BRANCH  32  36
ATOM     36  C   UNL     1      18.153  -2.169   0.807 +0.00 -0.00    +0.011 A 
ATOM     37  C   UNL     1      19.483  -1.922   0.263 +0.00 -0.00    +0.017 A 
ATOM     38  C   UNL     1      19.863  -0.602  -0.185 +0.00 -0.00    +0.020 A 
ATOM     39  C   UNL     1      18.898   0.460  -0.077 +0.00 -0.01    +0.116 A 
ATOM     40  N   UNL     1      17.621   0.210   0.448 +0.00 +0.02    -0.272 NA
ATOM     41  C   UNL     1      17.226  -1.051   0.885 +0.00 -0.01    +0.130 A 
ENDBRANCH  32  36
ENDBRANCH  28  30
ENDBRANCH   1  28
TORSDOF 7
TER
ENDMDL
