USER    Estimated Free Energy of Binding    =   +1.11 kcal/mol  [=(1)+(2)+(3)-(4)]
REMARK  7 active torsions:
REMARK  status: ('A' for Active; 'I' for Inactive)
REMARK    1  A    between atoms: C_1  and  N_2 
REMARK    2  A    between atoms: N_2  and  C_16 
REMARK    3  A    between atoms: C_10  and  N_11 
REMARK       I    between atoms: N_11  and  C_25 
REMARK    4  A    between atoms: N_13  and  C_32 
REMARK    5  A    between atoms: C_17  and  C_20 
REMARK    6  A    between atoms: C_25  and  C_26 
REMARK    7  A    between atoms: C_31  and  C_32 
ROOT
ATOM      1  C   UNL     1      20.277  -1.989  -0.116 +0.00 -0.00    +0.057 A 
ATOM      2  C   UNL     1      19.672  -2.471  -1.364 +0.00 +0.00    -0.035 A 
ATOM      3  C   UNL     1      18.351  -2.018  -1.695 +0.00 -0.00    +0.011 A 
ATOM      4  C   UNL     1      17.644  -1.114  -0.823 +0.00 -0.00    +0.030 A 
ATOM      5  C   UNL     1      18.230  -0.641   0.387 +0.00 -0.00    +0.037 A 
ATOM      6  C   UNL     1      19.568  -1.098   0.729 +0.00 -0.00    +0.060 A 
ATOM      7  C   UNL     1      20.386  -3.436  -2.339 +0.00 -0.00    +0.050 C 
ENDROOT
BRANCH   5   8
ATOM      8  N   UNL     1      17.464   0.269   1.202 +0.00 +0.02    -0.323 N 
ATOM      9  C   UNL     1      17.397   0.323   2.585 +0.00 -0.02    +0.256 C 
ATOM     10  O   UNL     1      17.821  -0.545   3.332 +0.00 +0.02    -0.267 OA
ATOM     11  H   UNL     1      16.923   0.933   0.716 +0.00 -0.01    +0.169 HD
BRANCH   9  12
ATOM     12  C   UNL     1      16.752   1.507   3.230 +0.00 -0.00    +0.032 A 
ATOM     13  C   UNL     1      15.899   2.420   2.464 +0.00 -0.00    +0.017 A 
ATOM     14  C   UNL     1      15.303   3.563   3.107 +0.00 -0.00    +0.010 A 
ATOM     15  C   UNL     1      15.556   3.800   4.527 +0.00 +0.00    -0.033 A 
ATOM     16  C   UNL     1      16.401   2.875   5.264 +0.00 -0.00    +0.010 A 
ATOM     17  C   UNL     1      16.988   1.754   4.637 +0.00 -0.00    +0.017 A 
BRANCH  15  18
ATOM     18  C   UNL     1      14.978   5.006   5.290 +0.00 -0.02    +0.273 C 
BRANCH  18  19
ATOM     19  N   UNL     1      15.925   6.102   5.654 +0.00 +0.00    -0.064 N 
ATOM     20  C   UNL     1      16.538   5.845   7.009 +0.00 -0.02    +0.263 C 
ATOM     21  C   UNL     1      17.512   6.985   7.416 +0.00 -0.02    +0.262 C 
ATOM     22  N   UNL     1      18.599   7.170   6.367 +0.00 +0.01    -0.072 N 
ATOM     23  C   UNL     1      17.993   7.449   4.990 +0.00 -0.02    +0.262 C 
ATOM     24  C   UNL     1      19.554   8.235   6.707 +0.00 -0.02    +0.269 C 
ATOM     25  H   UNL     1      19.115   6.291   6.343 +0.00 -0.02    +0.279 HD
ATOM     26  C   UNL     1      17.024   6.284   4.604 +0.00 -0.02    +0.263 C 
ATOM     27  H   UNL     1      15.384   6.966   5.690 +0.00 -0.02    +0.280 HD
ENDBRANCH  18  19
ENDBRANCH  15  18
ENDBRANCH   9  12
ENDBRANCH   5   8
BRANCH   1  28
ATOM     28  N   UNL     1      21.559  -2.396   0.261 +0.00 +0.01    -0.188 N 
ATOM     29  H   UNL     1      22.283  -2.407  -0.407 +0.00 -0.01    +0.184 HD
BRANCH  28  30
ATOM     30  C   UNL     1      21.824  -2.784   1.565 +0.00 -0.05    +0.727 A 
ATOM     31  N   UNL     1      21.290  -2.052   2.566 +0.00 +0.00    -0.062 NA
ATOM     32  C   UNL     1      21.512  -2.362   3.889 +0.00 -0.01    +0.089 A 
ATOM     33  C   UNL     1      22.327  -3.493   4.228 +0.00 -0.00    +0.053 A 
ATOM     34  C   UNL     1      22.872  -4.243   3.162 +0.00 -0.01    +0.139 A 
ATOM     35  N   UNL     1      22.615  -3.879   1.858 +0.00 +0.01    -0.075 NA
BRANCH  32  36
ATOM     36  C   UNL     1      20.868  -1.469   4.904 +0.00 -0.00    +0.011 A 
ATOM     37  C   UNL     1      20.349  -1.959   6.174 +0.00 -0.00    +0.017 A 
ATOM     38  C   UNL     1      19.737  -1.054   7.120 +0.00 -0.00    +0.020 A 
ATOM     39  C   UNL     1      19.651   0.340   6.773 +0.00 -0.01    +0.116 A 
ATOM     40  N   UNL     1      20.156   0.800   5.548 +0.00 +0.02    -0.272 NA
ATOM     41  C   UNL     1      20.752  -0.047   4.619 +0.00 -0.01    +0.130 A 
ENDBRANCH  32  36
ENDBRANCH  28  30
ENDBRANCH   1  28
TORSDOF 7
TER
ENDMDL
