REMARK  7 active torsions:
REMARK  status: ('A' for Active; 'I' for Inactive)
REMARK    1  A    between atoms: C_1  and  N_2 
REMARK    2  A    between atoms: N_2  and  C_16 
REMARK    3  A    between atoms: C_10  and  N_11 
REMARK       I    between atoms: N_11  and  C_25 
REMARK    4  A    between atoms: N_13  and  C_32 
REMARK    5  A    between atoms: C_17  and  C_20 
REMARK    6  A    between atoms: C_25  and  C_26 
REMARK    7  A    between atoms: C_31  and  C_32 
ROOT
HETATM    1  C   UNL     1      15.822  54.641  12.322  1.00  0.00     0.057 A 
HETATM    2  C   UNL     1      16.950  54.502  11.393  1.00  0.00    -0.035 A 
HETATM    3  C   UNL     1      17.915  53.471  11.648  1.00  0.00     0.011 A 
HETATM    4  C   UNL     1      17.774  52.597  12.786  1.00  0.00     0.030 A 
HETATM    5  C   UNL     1      16.678  52.727  13.688  1.00  0.00     0.037 A 
HETATM    6  C   UNL     1      15.698  53.772  13.436  1.00  0.00     0.060 A 
HETATM    7  C   UNL     1      17.148  55.406  10.154  1.00  0.00     0.050 C 
ENDROOT
BRANCH   5   8
HETATM    8  N   UNL     1      16.600  51.810  14.798  1.00  0.00    -0.323 N 
HETATM    9  C   UNL     1      15.629  51.747  15.784  1.00  0.00     0.256 C 
HETATM   10  O   UNL     1      14.789  52.612  15.983  1.00  0.00    -0.267 OA
HETATM   11  H   UNL     1      17.326  51.148  14.863  1.00  0.00     0.169 HD
BRANCH   9  12
HETATM   12  C   UNL     1      15.595  50.558  16.689  1.00  0.00     0.032 A 
HETATM   13  C   UNL     1      14.423  50.268  17.519  1.00  0.00     0.017 A 
HETATM   14  C   UNL     1      14.423  49.124  18.396  1.00  0.00     0.010 A 
HETATM   15  C   UNL     1      15.600  48.260  18.446  1.00  0.00    -0.033 A 
HETATM   16  C   UNL     1      16.747  48.568  17.608  1.00  0.00     0.010 A 
HETATM   17  C   UNL     1      16.751  49.689  16.748  1.00  0.00     0.017 A 
BRANCH  15  18
HETATM   18  C   UNL     1      15.696  47.030  19.368  1.00  0.00     0.273 C 
BRANCH  18  19
HETATM   19  N   UNL     1      16.917  46.907  20.219  1.00  0.00    -0.064 N 
HETATM   20  C   UNL     1      17.097  48.140  21.070  1.00  0.00     0.263 C 
HETATM   21  C   UNL     1      18.375  48.041  21.949  1.00  0.00     0.262 C 
HETATM   22  N   UNL     1      18.337  46.794  22.821  1.00  0.00    -0.072 N 
HETATM   23  C   UNL     1      18.172  45.533  21.971  1.00  0.00     0.262 C 
HETATM   24  C   UNL     1      19.522  46.655  23.680  1.00  0.00     0.269 C 
HETATM   25  H   UNL     1      17.527  46.906  23.431  1.00  0.00     0.279 HD
HETATM   26  C   UNL     1      16.877  45.658  21.104  1.00  0.00     0.263 C 
HETATM   27  H   UNL     1      17.714  46.815  19.589  1.00  0.00     0.280 HD
ENDBRANCH  18  19
ENDBRANCH  15  18
ENDBRANCH   9  12
ENDBRANCH   5   8
BRANCH   1  28
HETATM   28  N   UNL     1      14.852  55.627  12.128  1.00  0.00    -0.188 N 
HETATM   29  H   UNL     1      14.006  55.396  11.680  1.00  0.00     0.184 HD
BRANCH  28  30
HETATM   30  C   UNL     1      15.067  56.927  12.559  1.00  0.00     0.727 A 
HETATM   31  N   UNL     1      14.101  57.840  12.327  1.00  0.00    -0.062 NA
HETATM   32  C   UNL     1      14.238  59.155  12.712  1.00  0.00     0.089 A 
HETATM   33  C   UNL     1      15.433  59.579  13.383  1.00  0.00     0.053 A 
HETATM   34  C   UNL     1      16.428  58.603  13.615  1.00  0.00     0.139 A 
HETATM   35  N   UNL     1      16.232  57.303  13.202  1.00  0.00    -0.075 NA
BRANCH  32  36
HETATM   36  C   UNL     1      13.097  60.070  12.392  1.00  0.00     0.011 A 
HETATM   37  C   UNL     1      13.002  61.429  12.910  1.00  0.00     0.017 A 
HETATM   38  C   UNL     1      11.879  62.272  12.570  1.00  0.00     0.020 A 
HETATM   39  C   UNL     1      10.858  61.734  11.710  1.00  0.00     0.116 A 
HETATM   40  N   UNL     1      10.961  60.425  11.216  1.00  0.00    -0.272 NA
HETATM   41  C   UNL     1      12.031  59.591  11.525  1.00  0.00     0.130 A 
ENDBRANCH  32  36
ENDBRANCH  28  30
ENDBRANCH   1  28
TORSDOF 7
