REMARK VINA RESULT:    -7.262      1.616     13.556
REMARK INTER + INTRA:         -10.596
REMARK INTER:                  -9.633
REMARK INTRA:                  -0.963
REMARK UNBOUND:                -0.362
REMARK  7 active torsions:
REMARK  status: ('A' for Active; 'I' for Inactive)
REMARK    1  A    between atoms: C_1  and  N_2 
REMARK    2  A    between atoms: N_2  and  C_16 
REMARK    3  A    between atoms: C_10  and  N_11 
REMARK       I    between atoms: N_11  and  C_25 
REMARK    4  A    between atoms: N_13  and  C_32 
REMARK    5  A    between atoms: C_17  and  C_20 
REMARK    6  A    between atoms: C_25  and  C_26 
REMARK    7  A    between atoms: C_31  and  C_32 
ROOT
HETATM    1  C   UNL     1      16.946  48.641  17.557  1.00  0.00     0.057 A 
HETATM    2  C   UNL     1      15.636  48.369  18.162  1.00  0.00    -0.035 A 
HETATM    3  C   UNL     1      14.580  49.316  17.947  1.00  0.00     0.011 A 
HETATM    4  C   UNL     1      14.804  50.500  17.155  1.00  0.00     0.030 A 
HETATM    5  C   UNL     1      16.073  50.766  16.564  1.00  0.00     0.037 A 
HETATM    6  C   UNL     1      17.149  49.810  16.780  1.00  0.00     0.060 A 
HETATM    7  C   UNL     1      15.337  47.113  19.014  1.00  0.00     0.050 C 
ENDROOT
BRANCH   5   8
HETATM    8  N   UNL     1      16.218  51.966  15.778  1.00  0.00    -0.323 N 
HETATM    9  C   UNL     1      15.759  52.203  14.492  1.00  0.00     0.256 C 
HETATM   10  O   UNL     1      15.338  51.338  13.739  1.00  0.00    -0.267 OA
HETATM   11  H   UNL     1      16.703  52.708  16.207  1.00  0.00     0.169 HD
BRANCH   9  12
HETATM   12  C   UNL     1      15.786  53.600  13.962  1.00  0.00     0.032 A 
HETATM   13  C   UNL     1      17.046  54.335  13.819  1.00  0.00     0.017 A 
HETATM   14  C   UNL     1      17.042  55.687  13.321  1.00  0.00     0.010 A 
HETATM   15  C   UNL     1      15.772  56.314  12.960  1.00  0.00    -0.033 A 
HETATM   16  C   UNL     1      14.538  55.560  13.107  1.00  0.00     0.010 A 
HETATM   17  C   UNL     1      14.538  54.235  13.596  1.00  0.00     0.017 A 
BRANCH  15  18
HETATM   18  C   UNL     1      15.671  57.760  12.441  1.00  0.00     0.273 C 
BRANCH  18  19
HETATM   19  N   UNL     1      14.366  58.463  12.623  1.00  0.00    -0.064 N 
HETATM   20  C   UNL     1      14.588  59.880  13.091  1.00  0.00     0.263 C 
HETATM   21  C   UNL     1      13.240  60.624  13.307  1.00  0.00     0.262 C 
HETATM   22  N   UNL     1      12.403  60.608  12.036  1.00  0.00    -0.072 N 
HETATM   23  C   UNL     1      12.155  59.176  11.559  1.00  0.00     0.262 C 
HETATM   24  C   UNL     1      11.117  61.305  12.184  1.00  0.00     0.269 C 
HETATM   25  H   UNL     1      12.948  61.113  11.338  1.00  0.00     0.279 HD
HETATM   26  C   UNL     1      13.526  58.456  11.343  1.00  0.00     0.263 C 
HETATM   27  H   UNL     1      13.847  57.951  13.337  1.00  0.00     0.280 HD
ENDBRANCH  18  19
ENDBRANCH  15  18
ENDBRANCH   9  12
ENDBRANCH   5   8
BRANCH   1  28
HETATM   28  N   UNL     1      18.013  47.758  17.733  1.00  0.00    -0.188 N 
HETATM   29  H   UNL     1      18.135  47.011  17.103  1.00  0.00     0.184 HD
BRANCH  28  30
HETATM   30  C   UNL     1      18.902  47.921  18.784  1.00  0.00     0.727 A 
HETATM   31  N   UNL     1      18.835  47.051  19.813  1.00  0.00    -0.062 NA
HETATM   32  C   UNL     1      19.673  47.148  20.901  1.00  0.00     0.089 A 
HETATM   33  C   UNL     1      20.653  48.195  20.954  1.00  0.00     0.053 A 
HETATM   34  C   UNL     1      20.703  49.091  19.863  1.00  0.00     0.139 A 
HETATM   35  N   UNL     1      19.834  48.943  18.804  1.00  0.00    -0.075 NA
BRANCH  32  36
HETATM   36  C   UNL     1      19.494  46.125  21.979  1.00  0.00     0.011 A 
HETATM   37  C   UNL     1      18.844  44.840  21.752  1.00  0.00     0.017 A 
HETATM   38  C   UNL     1      18.697  43.887  22.827  1.00  0.00     0.020 A 
HETATM   39  C   UNL     1      19.206  44.240  24.126  1.00  0.00     0.116 A 
HETATM   40  N   UNL     1      19.831  45.478  24.333  1.00  0.00    -0.272 NA
HETATM   41  C   UNL     1      19.988  46.415  23.316  1.00  0.00     0.130 A 
ENDBRANCH  32  36
ENDBRANCH  28  30
ENDBRANCH   1  28
TORSDOF 7
ENDMDL
