complex
  PyMOL2.5          3D                             0

 70 74  0  0  0  0  0  0  0  0999 V2000
   15.8220   54.6410   12.3220 C   0  0  0  0  0  0  0  0  0  0  0  0
   14.8520   55.6270   12.1280 N   0  0  0  0  0  0  0  0  0  0  0  0
   14.7890   52.6120   15.9830 O   0  0  0  0  0  0  0  0  0  0  0  0
   16.9500   54.5020   11.3930 C   0  0  0  0  0  0  0  0  0  0  0  0
   14.1010   57.8400   12.3270 N   0  0  0  0  0  0  0  0  0  0  0  0
   17.9150   53.4710   11.6480 C   0  0  0  0  0  0  0  0  0  0  0  0
   16.2320   57.3030   13.2020 N   0  0  0  0  0  0  0  0  0  0  0  0
   17.7740   52.5970   12.7860 C   0  0  0  0  0  0  0  0  0  0  0  0
   10.9610   60.4250   11.2160 N   0  0  0  0  0  0  0  0  0  0  0  0
   16.6780   52.7270   13.6880 C   0  0  0  0  0  0  0  0  0  0  0  0
   16.6000   51.8100   14.7980 N   0  0  0  0  0  0  0  0  0  0  0  0
   15.6980   53.7720   13.4360 C   0  0  0  0  0  0  0  0  0  0  0  0
   16.9170   46.9070   20.2190 N   0  0  0  0  0  0  0  0  0  0  0  0
   17.1480   55.4060   10.1540 C   0  0  0  0  0  0  0  0  0  0  0  0
   18.3370   46.7940   22.8210 N   0  0  0  0  0  0  0  0  0  0  0  0
   15.0670   56.9270   12.5590 C   0  0  0  0  0  0  0  0  0  0  0  0
   14.2380   59.1550   12.7120 C   0  0  0  0  0  0  0  0  0  0  0  0
   15.4330   59.5790   13.3830 C   0  0  0  0  0  0  0  0  0  0  0  0
   16.4280   58.6030   13.6150 C   0  0  0  0  0  0  0  0  0  0  0  0
   13.0970   60.0700   12.3920 C   0  0  0  0  0  0  0  0  0  0  0  0
   11.8790   62.2720   12.5700 C   0  0  0  0  0  0  0  0  0  0  0  0
   13.0020   61.4290   12.9100 C   0  0  0  0  0  0  0  0  0  0  0  0
   10.8580   61.7340   11.7100 C   0  0  0  0  0  0  0  0  0  0  0  0
   12.0310   59.5910   11.5250 C   0  0  0  0  0  0  0  0  0  0  0  0
   15.6290   51.7470   15.7840 C   0  0  0  0  0  0  0  0  0  0  0  0
   15.5950   50.5580   16.6890 C   0  0  0  0  0  0  0  0  0  0  0  0
   14.4230   50.2680   17.5190 C   0  0  0  0  0  0  0  0  0  0  0  0
   16.7510   49.6890   16.7480 C   0  0  0  0  0  0  0  0  0  0  0  0
   14.4230   49.1240   18.3960 C   0  0  0  0  0  0  0  0  0  0  0  0
   16.7470   48.5680   17.6080 C   0  0  0  0  0  0  0  0  0  0  0  0
   15.6000   48.2600   18.4460 C   0  0  0  0  0  0  0  0  0  0  0  0
   15.6960   47.0300   19.3680 C   0  0  0  0  0  0  0  0  0  0  0  0
   17.0970   48.1400   21.0700 C   0  0  0  0  0  0  0  0  0  0  0  0
   16.8770   45.6580   21.1040 C   0  0  0  0  0  0  0  0  0  0  0  0
   18.3750   48.0410   21.9490 C   0  0  0  0  0  0  0  0  0  0  0  0
   18.1720   45.5330   21.9710 C   0  0  0  0  0  0  0  0  0  0  0  0
   19.5220   46.6550   23.6800 C   0  0  0  0  0  0  0  0  0  0  0  0
   14.0060   55.3960   11.6800 H   0  0  0  0  0  0  0  0  0  0  0  0
   17.3260   51.1480   14.8630 H   0  0  0  0  0  0  0  0  0  0  0  0
   17.7140   46.8150   19.5890 H   0  0  0  0  0  0  0  0  0  0  0  0
   17.5270   46.9060   23.4310 H   0  0  0  0  0  0  0  0  0  0  0  0
   18.7630   53.3470   10.9750 H   0  0  0  0  0  0  0  0  0  0  0  0
   18.5200   51.8220   12.9600 H   0  0  0  0  0  0  0  0  0  0  0  0
   14.8540   53.8890   14.1150 H   0  0  0  0  0  0  0  0  0  0  0  0
   18.1920   55.3720    9.8430 H   0  0  0  0  0  0  0  0  0  0  0  0
   16.5160   55.0510    9.3400 H   0  0  0  0  0  0  0  0  0  0  0  0
   16.8770   56.4320   10.4050 H   0  0  0  0  0  0  0  0  0  0  0  0
   15.5680   60.6130   13.7010 H   0  0  0  0  0  0  0  0  0  0  0  0
   17.3530   58.8790   14.1220 H   0  0  0  0  0  0  0  0  0  0  0  0
   11.8070   63.2890   12.9550 H   0  0  0  0  0  0  0  0  0  0  0  0
   13.7870   61.8140   13.5610 H   0  0  0  0  0  0  0  0  0  0  0  0
    9.9990   62.3480   11.4410 H   0  0  0  0  0  0  0  0  0  0  0  0
   12.0710   58.5800   11.1180 H   0  0  0  0  0  0  0  0  0  0  0  0
   13.5500   50.9180   17.4730 H   0  0  0  0  0  0  0  0  0  0  0  0
   17.6240   49.8990   16.1300 H   0  0  0  0  0  0  0  0  0  0  0  0
   13.5530   48.9060   19.0160 H   0  0  0  0  0  0  0  0  0  0  0  0
   17.6230   47.9200   17.6440 H   0  0  0  0  0  0  0  0  0  0  0  0
   14.8730   47.1440   20.0740 H   0  0  0  0  0  0  0  0  0  0  0  0
   15.6440   46.1420   18.7380 H   0  0  0  0  0  0  0  0  0  0  0  0
   16.2340   48.2300   21.7290 H   0  0  0  0  0  0  0  0  0  0  0  0
   17.1790   49.0110   20.4200 H   0  0  0  0  0  0  0  0  0  0  0  0
   16.8100   44.7820   20.4590 H   0  0  0  0  0  0  0  0  0  0  0  0
   16.0120   45.7170   21.7640 H   0  0  0  0  0  0  0  0  0  0  0  0
   19.2450   47.9830   21.2950 H   0  0  0  0  0  0  0  0  0  0  0  0
   18.4400   48.9220   22.5870 H   0  0  0  0  0  0  0  0  0  0  0  0
   18.0920   44.6630   22.6220 H   0  0  0  0  0  0  0  0  0  0  0  0
   19.0380   45.4170   21.3190 H   0  0  0  0  0  0  0  0  0  0  0  0
   20.3080   47.3210   23.3250 H   0  0  0  0  0  0  0  0  0  0  0  0
   19.2610   46.9170   24.7050 H   0  0  0  0  0  0  0  0  0  0  0  0
   19.8770   45.6250   23.6460 H   0  0  0  0  0  0  0  0  0  0  0  0
  1  2  1  0  0  0  0
  1  4  1  0  0  0  0
  1 12  1  0  0  0  0
  2 16  1  0  0  0  0
  2 38  1  0  0  0  0
  3 25  1  0  0  0  0
  4  6  1  0  0  0  0
  4 14  1  0  0  0  0
  5 16  1  0  0  0  0
  5 17  1  0  0  0  0
  6  8  1  0  0  0  0
  6 42  1  0  0  0  0
  7 16  1  0  0  0  0
  7 19  1  0  0  0  0
  8 10  1  0  0  0  0
  8 43  1  0  0  0  0
  9 23  1  0  0  0  0
  9 24  1  0  0  0  0
 10 11  1  0  0  0  0
 10 12  1  0  0  0  0
 11 25  1  0  0  0  0
 11 39  1  0  0  0  0
 12 44  1  0  0  0  0
 13 32  1  0  0  0  0
 13 33  1  0  0  0  0
 13 34  1  0  0  0  0
 13 40  1  0  0  0  0
 14 45  1  0  0  0  0
 14 46  1  0  0  0  0
 14 47  1  0  0  0  0
 15 35  1  0  0  0  0
 15 36  1  0  0  0  0
 15 37  1  0  0  0  0
 15 41  1  0  0  0  0
 17 18  1  0  0  0  0
 17 20  1  0  0  0  0
 18 19  1  0  0  0  0
 18 48  1  0  0  0  0
 19 49  1  0  0  0  0
 20 22  1  0  0  0  0
 20 24  1  0  0  0  0
 21 22  1  0  0  0  0
 21 23  1  0  0  0  0
 21 50  1  0  0  0  0
 22 51  1  0  0  0  0
 23 52  1  0  0  0  0
 24 53  1  0  0  0  0
 25 26  1  0  0  0  0
 26 27  1  0  0  0  0
 26 28  1  0  0  0  0
 27 29  1  0  0  0  0
 27 54  1  0  0  0  0
 28 30  1  0  0  0  0
 28 55  1  0  0  0  0
 29 31  1  0  0  0  0
 29 56  1  0  0  0  0
 30 31  1  0  0  0  0
 30 57  1  0  0  0  0
 31 32  1  0  0  0  0
 32 58  1  0  0  0  0
 32 59  1  0  0  0  0
 33 35  1  0  0  0  0
 33 60  1  0  0  0  0
 33 61  1  0  0  0  0
 34 36  1  0  0  0  0
 34 62  1  0  0  0  0
 34 63  1  0  0  0  0
 35 64  1  0  0  0  0
 35 65  1  0  0  0  0
 36 66  1  0  0  0  0
 36 67  1  0  0  0  0
 37 68  1  0  0  0  0
 37 69  1  0  0  0  0
 37 70  1  0  0  0  0
M  END
>  <pdb_header>


$$$$
