REMARK VINA RESULT:    -9.188      3.267     11.434
REMARK INTER + INTRA:         -13.698
REMARK INTER:                 -13.864
REMARK INTRA:                   0.166
REMARK UNBOUND:                -0.750
REMARK  7 active torsions:
REMARK  status: ('A' for Active; 'I' for Inactive)
REMARK    1  A    between atoms: C_1  and  N_2 
REMARK    2  A    between atoms: N_2  and  C_16 
REMARK    3  A    between atoms: C_10  and  N_11 
REMARK       I    between atoms: N_11  and  C_25 
REMARK    4  A    between atoms: N_13  and  C_32 
REMARK    5  A    between atoms: C_17  and  C_20 
REMARK    6  A    between atoms: C_25  and  C_26 
REMARK    7  A    between atoms: C_31  and  C_32 
ROOT
HETATM    1  C   UNL     1      17.440  53.847  13.723  1.00  0.00     0.057 A 
HETATM    2  C   UNL     1      16.652  53.687  12.495  1.00  0.00    -0.035 A 
HETATM    3  C   UNL     1      15.568  52.747  12.503  1.00  0.00     0.011 A 
HETATM    4  C   UNL     1      15.265  51.985  13.689  1.00  0.00     0.030 A 
HETATM    5  C   UNL     1      16.026  52.141  14.884  1.00  0.00     0.037 A 
HETATM    6  C   UNL     1      17.127  53.090  14.881  1.00  0.00     0.060 A 
HETATM    7  C   UNL     1      16.928  54.482  11.197  1.00  0.00     0.050 C 
ENDROOT
BRANCH   5   8
HETATM    8  N   UNL     1      15.656  51.350  16.032  1.00  0.00    -0.323 N 
HETATM    9  C   UNL     1      14.873  50.208  16.063  1.00  0.00     0.256 C 
HETATM   10  O   UNL     1      14.192  49.811  15.129  1.00  0.00    -0.267 OA
HETATM   11  H   UNL     1      16.003  51.661  16.900  1.00  0.00     0.169 HD
BRANCH   9  12
HETATM   12  C   UNL     1      14.830  49.396  17.318  1.00  0.00     0.032 A 
HETATM   13  C   UNL     1      14.056  49.837  18.481  1.00  0.00     0.017 A 
HETATM   14  C   UNL     1      14.045  49.044  19.685  1.00  0.00     0.010 A 
HETATM   15  C   UNL     1      14.809  47.800  19.730  1.00  0.00    -0.033 A 
HETATM   16  C   UNL     1      15.564  47.384  18.559  1.00  0.00     0.010 A 
HETATM   17  C   UNL     1      15.578  48.159  17.378  1.00  0.00     0.017 A 
BRANCH  15  18
HETATM   18  C   UNL     1      14.872  46.901  20.979  1.00  0.00     0.273 C 
BRANCH  18  19
HETATM   19  N   UNL     1      16.220  46.634  21.562  1.00  0.00    -0.064 N 
HETATM   20  C   UNL     1      16.804  45.366  20.988  1.00  0.00     0.263 C 
HETATM   21  C   UNL     1      18.200  45.058  21.598  1.00  0.00     0.262 C 
HETATM   22  N   UNL     1      19.153  46.226  21.387  1.00  0.00    -0.072 N 
HETATM   23  C   UNL     1      18.583  47.516  21.978  1.00  0.00     0.262 C 
HETATM   24  C   UNL     1      20.494  45.984  21.939  1.00  0.00     0.269 C 
HETATM   25  H   UNL     1      19.251  46.325  20.376  1.00  0.00     0.279 HD
HETATM   26  C   UNL     1      17.184  47.803  21.342  1.00  0.00     0.263 C 
HETATM   27  H   UNL     1      16.095  46.520  22.568  1.00  0.00     0.280 HD
ENDBRANCH  18  19
ENDBRANCH  15  18
ENDBRANCH   9  12
ENDBRANCH   5   8
BRANCH   1  28
HETATM   28  N   UNL     1      18.509  54.745  13.776  1.00  0.00    -0.188 N 
HETATM   29  H   UNL     1      19.426  54.419  13.627  1.00  0.00     0.184 HD
BRANCH  28  30
HETATM   30  C   UNL     1      18.292  56.090  14.034  1.00  0.00     0.727 A 
HETATM   31  N   UNL     1      17.157  56.650  13.569  1.00  0.00    -0.062 NA
HETATM   32  C   UNL     1      16.869  57.982  13.771  1.00  0.00     0.089 A 
HETATM   33  C   UNL     1      17.790  58.806  14.499  1.00  0.00     0.053 A 
HETATM   34  C   UNL     1      18.970  58.194  14.977  1.00  0.00     0.139 A 
HETATM   35  N   UNL     1      19.202  56.857  14.738  1.00  0.00    -0.075 NA
BRANCH  32  36
HETATM   36  C   UNL     1      15.579  58.483  13.200  1.00  0.00     0.011 A 
HETATM   37  C   UNL     1      15.108  59.850  13.387  1.00  0.00     0.017 A 
HETATM   38  C   UNL     1      13.855  60.285  12.813  1.00  0.00     0.020 A 
HETATM   39  C   UNL     1      13.085  59.333  12.057  1.00  0.00     0.116 A 
HETATM   40  N   UNL     1      13.549  58.020  11.883  1.00  0.00    -0.272 NA
HETATM   41  C   UNL     1      14.751  57.574  12.422  1.00  0.00     0.130 A 
ENDBRANCH  32  36
ENDBRANCH  28  30
ENDBRANCH   1  28
TORSDOF 7
ENDMDL
