REMARK VINA RESULT:    -8.757      5.835      9.901
REMARK INTER + INTRA:         -13.090
REMARK INTER:                 -12.340
REMARK INTRA:                  -0.750
REMARK UNBOUND:                -0.750
REMARK  7 active torsions:
REMARK  status: ('A' for Active; 'I' for Inactive)
REMARK    1  A    between atoms: C_1  and  N_2 
REMARK    2  A    between atoms: N_2  and  C_16 
REMARK    3  A    between atoms: C_10  and  N_11 
REMARK       I    between atoms: N_11  and  C_25 
REMARK    4  A    between atoms: N_13  and  C_32 
REMARK    5  A    between atoms: C_17  and  C_20 
REMARK    6  A    between atoms: C_25  and  C_26 
REMARK    7  A    between atoms: C_31  and  C_32 
ROOT
HETATM    1  C   UNL     1      19.065  46.567  21.355  1.00  0.00     0.057 A 
HETATM    2  C   UNL     1      19.710  45.377  20.789  1.00  0.00    -0.035 A 
HETATM    3  C   UNL     1      21.028  45.517  20.238  1.00  0.00     0.011 A 
HETATM    4  C   UNL     1      21.696  46.794  20.246  1.00  0.00     0.030 A 
HETATM    5  C   UNL     1      21.074  47.952  20.798  1.00  0.00     0.037 A 
HETATM    6  C   UNL     1      19.737  47.816  21.355  1.00  0.00     0.060 A 
HETATM    7  C   UNL     1      19.045  43.981  20.760  1.00  0.00     0.050 C 
ENDROOT
BRANCH   5   8
HETATM    8  N   UNL     1      21.808  49.193  20.777  1.00  0.00    -0.323 N 
HETATM    9  C   UNL     1      22.360  49.873  21.850  1.00  0.00     0.256 C 
HETATM   10  O   UNL     1      22.121  49.626  23.022  1.00  0.00    -0.267 OA
HETATM   11  H   UNL     1      21.932  49.606  19.892  1.00  0.00     0.169 HD
BRANCH   9  12
HETATM   12  C   UNL     1      23.304  51.001  21.581  1.00  0.00     0.032 A 
HETATM   13  C   UNL     1      24.532  50.796  20.809  1.00  0.00     0.017 A 
HETATM   14  C   UNL     1      25.434  51.898  20.579  1.00  0.00     0.010 A 
HETATM   15  C   UNL     1      25.108  53.215  21.121  1.00  0.00    -0.033 A 
HETATM   16  C   UNL     1      23.880  53.391  21.879  1.00  0.00     0.010 A 
HETATM   17  C   UNL     1      22.995  52.313  22.107  1.00  0.00     0.017 A 
BRANCH  15  18
HETATM   18  C   UNL     1      26.022  54.442  20.943  1.00  0.00     0.273 C 
BRANCH  18  19
HETATM   19  N   UNL     1      25.953  55.161  19.636  1.00  0.00    -0.064 N 
HETATM   20  C   UNL     1      24.697  54.785  18.889  1.00  0.00     0.263 C 
HETATM   21  C   UNL     1      24.617  55.508  17.515  1.00  0.00     0.262 C 
HETATM   22  N   UNL     1      24.699  57.017  17.691  1.00  0.00    -0.072 N 
HETATM   23  C   UNL     1      25.977  57.416  18.433  1.00  0.00     0.262 C 
HETATM   24  C   UNL     1      24.620  57.752  16.420  1.00  0.00     0.269 C 
HETATM   25  H   UNL     1      23.884  57.277  18.247  1.00  0.00     0.279 HD
HETATM   26  C   UNL     1      26.027  56.680  19.811  1.00  0.00     0.263 C 
HETATM   27  H   UNL     1      26.766  54.872  19.091  1.00  0.00     0.280 HD
ENDBRANCH  18  19
ENDBRANCH  15  18
ENDBRANCH   9  12
ENDBRANCH   5   8
BRANCH   1  28
HETATM   28  N   UNL     1      17.782  46.494  21.903  1.00  0.00    -0.188 N 
HETATM   29  H   UNL     1      17.674  46.404  22.877  1.00  0.00     0.184 HD
BRANCH  28  30
HETATM   30  C   UNL     1      16.661  46.549  21.090  1.00  0.00     0.727 A 
HETATM   31  N   UNL     1      16.601  47.520  20.155  1.00  0.00    -0.062 NA
HETATM   32  C   UNL     1      15.518  47.652  19.314  1.00  0.00     0.089 A 
HETATM   33  C   UNL     1      14.419  46.736  19.420  1.00  0.00     0.053 A 
HETATM   34  C   UNL     1      14.508  45.728  20.406  1.00  0.00     0.139 A 
HETATM   35  N   UNL     1      15.617  45.650  21.220  1.00  0.00    -0.075 NA
BRANCH  32  36
HETATM   36  C   UNL     1      15.571  48.774  18.324  1.00  0.00     0.011 A 
HETATM   37  C   UNL     1      16.779  49.126  17.589  1.00  0.00     0.017 A 
HETATM   38  C   UNL     1      16.777  50.218  16.644  1.00  0.00     0.020 A 
HETATM   39  C   UNL     1      15.552  50.949  16.450  1.00  0.00     0.116 A 
HETATM   40  N   UNL     1      14.395  50.601  17.162  1.00  0.00    -0.272 NA
HETATM   41  C   UNL     1      14.367  49.553  18.077  1.00  0.00     0.130 A 
ENDBRANCH  32  36
ENDBRANCH  28  30
ENDBRANCH   1  28
TORSDOF 7
ENDMDL
