REMARK VINA RESULT:    -7.130      3.072     12.421
REMARK INTER + INTRA:         -10.719
REMARK INTER:                  -9.822
REMARK INTRA:                  -0.897
REMARK UNBOUND:                -0.671
REMARK  7 active torsions:
REMARK  status: ('A' for Active; 'I' for Inactive)
REMARK    1  A    between atoms: C_1  and  N_2 
REMARK    2  A    between atoms: N_2  and  C_16 
REMARK    3  A    between atoms: C_10  and  N_11 
REMARK       I    between atoms: N_11  and  C_25 
REMARK    4  A    between atoms: N_13  and  C_32 
REMARK    5  A    between atoms: C_17  and  C_20 
REMARK    6  A    between atoms: C_25  and  C_26 
REMARK    7  A    between atoms: C_31  and  C_32 
ROOT
HETATM    1  C   UNL     1      16.982  48.702  17.673  1.00  0.00     0.057 A 
HETATM    2  C   UNL     1      15.651  48.382  18.203  1.00  0.00    -0.035 A 
HETATM    3  C   UNL     1      14.572  49.282  17.911  1.00  0.00     0.011 A 
HETATM    4  C   UNL     1      14.794  50.464  17.116  1.00  0.00     0.030 A 
HETATM    5  C   UNL     1      16.084  50.775  16.597  1.00  0.00     0.037 A 
HETATM    6  C   UNL     1      17.183  49.868  16.892  1.00  0.00     0.060 A 
HETATM    7  C   UNL     1      15.354  47.126  19.055  1.00  0.00     0.050 C 
ENDROOT
BRANCH   5   8
HETATM    8  N   UNL     1      16.226  51.970  15.803  1.00  0.00    -0.323 N 
HETATM    9  C   UNL     1      15.758  52.201  14.520  1.00  0.00     0.256 C 
HETATM   10  O   UNL     1      15.327  51.333  13.775  1.00  0.00    -0.267 OA
HETATM   11  H   UNL     1      16.717  52.713  16.225  1.00  0.00     0.169 HD
BRANCH   9  12
HETATM   12  C   UNL     1      15.785  53.595  13.981  1.00  0.00     0.032 A 
HETATM   13  C   UNL     1      17.040  54.342  13.869  1.00  0.00     0.017 A 
HETATM   14  C   UNL     1      17.035  55.692  13.362  1.00  0.00     0.010 A 
HETATM   15  C   UNL     1      15.769  56.302  12.962  1.00  0.00    -0.033 A 
HETATM   16  C   UNL     1      14.540  55.536  13.079  1.00  0.00     0.010 A 
HETATM   17  C   UNL     1      14.540  54.214  13.576  1.00  0.00     0.017 A 
BRANCH  15  18
HETATM   18  C   UNL     1      15.668  57.744  12.430  1.00  0.00     0.273 C 
BRANCH  18  19
HETATM   19  N   UNL     1      14.368  58.454  12.623  1.00  0.00    -0.064 N 
HETATM   20  C   UNL     1      14.600  59.867  13.097  1.00  0.00     0.263 C 
HETATM   21  C   UNL     1      13.258  60.617  13.324  1.00  0.00     0.262 C 
HETATM   22  N   UNL     1      12.415  60.614  12.057  1.00  0.00    -0.072 N 
HETATM   23  C   UNL     1      12.156  59.186  11.573  1.00  0.00     0.262 C 
HETATM   24  C   UNL     1      11.134  61.318  12.215  1.00  0.00     0.269 C 
HETATM   25  H   UNL     1      12.960  61.120  11.359  1.00  0.00     0.279 HD
HETATM   26  C   UNL     1      13.521  58.459  11.347  1.00  0.00     0.263 C 
HETATM   27  H   UNL     1      13.849  57.941  13.336  1.00  0.00     0.280 HD
ENDBRANCH  18  19
ENDBRANCH  15  18
ENDBRANCH   9  12
ENDBRANCH   5   8
BRANCH   1  28
HETATM   28  N   UNL     1      18.073  47.866  17.925  1.00  0.00    -0.188 N 
HETATM   29  H   UNL     1      18.158  47.016  17.436  1.00  0.00     0.184 HD
BRANCH  28  30
HETATM   30  C   UNL     1      19.037  48.221  18.856  1.00  0.00     0.727 A 
HETATM   31  N   UNL     1      20.014  49.067  18.467  1.00  0.00    -0.062 NA
HETATM   32  C   UNL     1      21.016  49.462  19.324  1.00  0.00     0.089 A 
HETATM   33  C   UNL     1      21.032  48.972  20.673  1.00  0.00     0.053 A 
HETATM   34  C   UNL     1      19.997  48.090  21.055  1.00  0.00     0.139 A 
HETATM   35  N   UNL     1      19.024  47.729  20.148  1.00  0.00    -0.075 NA
BRANCH  32  36
HETATM   36  C   UNL     1      22.043  50.399  18.769  1.00  0.00     0.011 A 
HETATM   37  C   UNL     1      23.269  49.942  18.129  1.00  0.00     0.017 A 
HETATM   38  C   UNL     1      24.229  50.889  17.609  1.00  0.00     0.020 A 
HETATM   39  C   UNL     1      23.942  52.293  17.743  1.00  0.00     0.116 A 
HETATM   40  N   UNL     1      22.758  52.722  18.360  1.00  0.00    -0.272 NA
HETATM   41  C   UNL     1      21.815  51.833  18.868  1.00  0.00     0.130 A 
ENDBRANCH  32  36
ENDBRANCH  28  30
ENDBRANCH   1  28
TORSDOF 7
ENDMDL
