REMARK VINA RESULT:   -11.081      3.904     12.169
REMARK INTER + INTRA:         -16.164
REMARK INTER:                 -15.938
REMARK INTRA:                  -0.226
REMARK UNBOUND:                -0.548
REMARK  7 active torsions:
REMARK  status: ('A' for Active; 'I' for Inactive)
REMARK    1  A    between atoms: C_1  and  N_2 
REMARK    2  A    between atoms: N_2  and  C_16 
REMARK    3  A    between atoms: C_10  and  N_11 
REMARK       I    between atoms: N_11  and  C_25 
REMARK    4  A    between atoms: N_13  and  C_32 
REMARK    5  A    between atoms: C_17  and  C_20 
REMARK    6  A    between atoms: C_25  and  C_26 
REMARK    7  A    between atoms: C_31  and  C_32 
ROOT
HETATM    1  C   UNL     1      18.219  48.658  18.897  1.00  0.00     0.057 A 
HETATM    2  C   UNL     1      17.223  47.591  19.056  1.00  0.00    -0.035 A 
HETATM    3  C   UNL     1      16.093  47.582  18.171  1.00  0.00     0.011 A 
HETATM    4  C   UNL     1      15.946  48.593  17.154  1.00  0.00     0.030 A 
HETATM    5  C   UNL     1      16.913  49.628  16.995  1.00  0.00     0.037 A 
HETATM    6  C   UNL     1      18.060  49.645  17.891  1.00  0.00     0.060 A 
HETATM    7  C   UNL     1      17.332  46.478  20.124  1.00  0.00     0.050 C 
ENDROOT
BRANCH   5   8
HETATM    8  N   UNL     1      16.703  50.599  15.950  1.00  0.00    -0.323 N 
HETATM    9  C   UNL     1      15.714  51.566  15.872  1.00  0.00     0.256 C 
HETATM   10  O   UNL     1      14.727  51.604  16.591  1.00  0.00    -0.267 OA
HETATM   11  H   UNL     1      17.340  50.570  15.199  1.00  0.00     0.169 HD
BRANCH   9  12
HETATM   12  C   UNL     1      15.832  52.637  14.836  1.00  0.00     0.032 A 
HETATM   13  C   UNL     1      14.848  53.719  14.747  1.00  0.00     0.017 A 
HETATM   14  C   UNL     1      14.975  54.730  13.727  1.00  0.00     0.010 A 
HETATM   15  C   UNL     1      16.094  54.665  12.790  1.00  0.00    -0.033 A 
HETATM   16  C   UNL     1      17.059  53.584  12.905  1.00  0.00     0.010 A 
HETATM   17  C   UNL     1      16.936  52.590  13.902  1.00  0.00     0.017 A 
BRANCH  15  18
HETATM   18  C   UNL     1      16.297  55.689  11.658  1.00  0.00     0.273 C 
BRANCH  18  19
HETATM   19  N   UNL     1      15.681  57.038  11.837  1.00  0.00    -0.064 N 
HETATM   20  C   UNL     1      14.189  56.919  12.026  1.00  0.00     0.263 C 
HETATM   21  C   UNL     1      13.526  58.314  12.194  1.00  0.00     0.262 C 
HETATM   22  N   UNL     1      14.150  59.074  13.356  1.00  0.00    -0.072 N 
HETATM   23  C   UNL     1      15.662  59.218  13.170  1.00  0.00     0.262 C 
HETATM   24  C   UNL     1      13.553  60.401  13.564  1.00  0.00     0.269 C 
HETATM   25  H   UNL     1      13.957  58.517  14.188  1.00  0.00     0.279 HD
HETATM   26  C   UNL     1      16.302  57.801  13.011  1.00  0.00     0.263 C 
HETATM   27  H   UNL     1      15.870  57.569  10.987  1.00  0.00     0.280 HD
ENDBRANCH  18  19
ENDBRANCH  15  18
ENDBRANCH   9  12
ENDBRANCH   5   8
BRANCH   1  28
HETATM   28  N   UNL     1      19.338  48.722  19.730  1.00  0.00    -0.188 N 
HETATM   29  H   UNL     1      19.232  49.002  20.668  1.00  0.00     0.184 HD
BRANCH  28  30
HETATM   30  C   UNL     1      20.597  48.396  19.250  1.00  0.00     0.727 A 
HETATM   31  N   UNL     1      21.443  49.403  18.951  1.00  0.00    -0.062 NA
HETATM   32  C   UNL     1      22.708  49.168  18.460  1.00  0.00     0.089 A 
HETATM   33  C   UNL     1      23.153  47.819  18.259  1.00  0.00     0.053 A 
HETATM   34  C   UNL     1      22.248  46.782  18.581  1.00  0.00     0.139 A 
HETATM   35  N   UNL     1      20.995  47.084  19.066  1.00  0.00    -0.075 NA
BRANCH  32  36
HETATM   36  C   UNL     1      23.547  50.371  18.163  1.00  0.00     0.011 A 
HETATM   37  C   UNL     1      24.271  50.543  16.909  1.00  0.00     0.017 A 
HETATM   38  C   UNL     1      25.068  51.725  16.673  1.00  0.00     0.020 A 
HETATM   39  C   UNL     1      25.128  52.725  17.706  1.00  0.00     0.116 A 
HETATM   40  N   UNL     1      24.426  52.550  18.908  1.00  0.00    -0.272 NA
HETATM   41  C   UNL     1      23.650  51.423  19.163  1.00  0.00     0.130 A 
ENDBRANCH  32  36
ENDBRANCH  28  30
ENDBRANCH   1  28
TORSDOF 7
ENDMDL
