USER    Estimated Free Energy of Binding    =   +1.10 kcal/mol  [=(1)+(2)+(3)-(4)]
REMARK  7 active torsions:
REMARK  status: ('A' for Active; 'I' for Inactive)
REMARK    1  A    between atoms: C_1  and  N_2 
REMARK    2  A    between atoms: N_2  and  C_16 
REMARK    3  A    between atoms: C_10  and  N_11 
REMARK       I    between atoms: N_11  and  C_25 
REMARK    4  A    between atoms: N_13  and  C_32 
REMARK    5  A    between atoms: C_17  and  C_20 
REMARK    6  A    between atoms: C_25  and  C_26 
REMARK    7  A    between atoms: C_31  and  C_32 
ROOT
ATOM      1  C   UNL     1      15.910  -2.308   5.153 +0.00 -0.00    +0.057 A 
ATOM      2  C   UNL     1      16.661  -3.536   4.867 +0.00 +0.00    -0.035 A 
ATOM      3  C   UNL     1      17.898  -3.422   4.148 +0.00 -0.00    +0.011 A 
ATOM      4  C   UNL     1      18.385  -2.134   3.723 +0.00 -0.00    +0.030 A 
ATOM      5  C   UNL     1      17.660  -0.939   4.003 +0.00 -0.00    +0.037 A 
ATOM      6  C   UNL     1      16.405  -1.048   4.729 +0.00 -0.00    +0.060 A 
ATOM      7  C   UNL     1      16.189  -4.943   5.303 +0.00 -0.00    +0.050 C 
ENDROOT
BRANCH   5   8
ATOM      8  N   UNL     1      18.217   0.314   3.554 +0.00 +0.02    -0.323 N 
ATOM      9  C   UNL     1      17.540   1.421   3.069 +0.00 -0.02    +0.256 C 
ATOM     10  O   UNL     1      16.361   1.424   2.746 +0.00 +0.02    -0.267 OA
ATOM     11  H   UNL     1      19.197   0.391   3.597 +0.00 -0.01    +0.169 HD
BRANCH   9  12
ATOM     12  C   UNL     1      18.284   2.707   2.906 +0.00 -0.00    +0.032 A 
ATOM     13  C   UNL     1      19.724   2.724   2.640 +0.00 -0.00    +0.017 A 
ATOM     14  C   UNL     1      20.420   3.978   2.504 +0.00 -0.00    +0.010 A 
ATOM     15  C   UNL     1      19.675   5.228   2.632 +0.00 +0.00    -0.033 A 
ATOM     16  C   UNL     1      18.246   5.183   2.891 +0.00 -0.00    +0.010 A 
ATOM     17  C   UNL     1      17.560   3.955   3.026 +0.00 -0.00    +0.017 A 
BRANCH  15  18
ATOM     18  C   UNL     1      20.340   6.613   2.522 +0.00 -0.02    +0.273 C 
BRANCH  18  19
ATOM     19  N   UNL     1      20.773   7.058   1.164 +0.00 +0.01    -0.064 N 
ATOM     20  C   UNL     1      22.171   6.574   0.868 +0.00 -0.02    +0.263 C 
ATOM     21  C   UNL     1      22.650   7.044  -0.534 +0.00 -0.02    +0.262 C 
ATOM     22  N   UNL     1      21.686   6.582  -1.618 +0.00 +0.01    -0.072 N 
ATOM     23  C   UNL     1      20.266   7.080  -1.341 +0.00 -0.02    +0.262 C 
ATOM     24  C   UNL     1      22.096   6.995  -2.968 +0.00 -0.02    +0.269 C 
ATOM     25  H   UNL     1      21.704   5.563  -1.590 +0.00 -0.02    +0.279 HD
ATOM     26  C   UNL     1      19.810   6.587   0.071 +0.00 -0.02    +0.263 C 
ATOM     27  H   UNL     1      20.765   8.078   1.166 +0.00 -0.02    +0.280 HD
ENDBRANCH  18  19
ENDBRANCH  15  18
ENDBRANCH   9  12
ENDBRANCH   5   8
BRANCH   1  28
ATOM     28  N   UNL     1      14.698  -2.355   5.846 +0.00 +0.01    -0.188 N 
ATOM     29  H   UNL     1      14.622  -2.910   6.656 +0.00 -0.01    +0.184 HD
BRANCH  28  30
ATOM     30  C   UNL     1      13.602  -1.628   5.408 +0.00 -0.05    +0.727 A 
ATOM     31  N   UNL     1      13.810  -0.368   4.970 +0.00 +0.00    -0.062 NA
ATOM     32  C   UNL     1      12.776   0.426   4.528 +0.00 -0.01    +0.089 A 
ATOM     33  C   UNL     1      11.437  -0.087   4.522 +0.00 -0.00    +0.053 A 
ATOM     34  C   UNL     1      11.247  -1.409   4.984 +0.00 -0.01    +0.139 A 
ATOM     35  N   UNL     1      12.323  -2.153   5.417 +0.00 +0.01    -0.075 NA
BRANCH  32  36
ATOM     36  C   UNL     1      13.138   1.806   4.073 +0.00 -0.00    +0.011 A 
ATOM     37  C   UNL     1      12.590   2.411   2.866 +0.00 -0.00    +0.017 A 
ATOM     38  C   UNL     1      12.971   3.748   2.471 +0.00 -0.00    +0.020 A 
ATOM     39  C   UNL     1      13.907   4.462   3.299 +0.00 -0.01    +0.116 A 
ATOM     40  N   UNL     1      14.427   3.870   4.460 +0.00 +0.02    -0.272 NA
ATOM     41  C   UNL     1      14.076   2.586   4.866 +0.00 -0.01    +0.130 A 
ENDBRANCH  32  36
ENDBRANCH  28  30
ENDBRANCH   1  28
TORSDOF 7
TER
ENDMDL
