REMARK VINA RESULT:   -10.854      1.645     13.484
REMARK INTER + INTRA:         -15.844
REMARK INTER:                 -14.906
REMARK INTRA:                  -0.938
REMARK UNBOUND:                -0.548
REMARK  7 active torsions:
REMARK  status: ('A' for Active; 'I' for Inactive)
REMARK    1  A    between atoms: C_1  and  N_2 
REMARK    2  A    between atoms: N_2  and  C_16 
REMARK    3  A    between atoms: C_10  and  N_11 
REMARK       I    between atoms: N_11  and  C_25 
REMARK    4  A    between atoms: N_13  and  C_32 
REMARK    5  A    between atoms: C_17  and  C_20 
REMARK    6  A    between atoms: C_25  and  C_26 
REMARK    7  A    between atoms: C_31  and  C_32 
ROOT
HETATM    1  C   UNL     1      16.960  48.659  17.419  1.00  0.00     0.057 A 
HETATM    2  C   UNL     1      15.660  48.387  18.044  1.00  0.00    -0.035 A 
HETATM    3  C   UNL     1      14.605  49.343  17.858  1.00  0.00     0.011 A 
HETATM    4  C   UNL     1      14.822  50.534  17.075  1.00  0.00     0.030 A 
HETATM    5  C   UNL     1      16.082  50.798  16.463  1.00  0.00     0.037 A 
HETATM    6  C   UNL     1      17.155  49.835  16.651  1.00  0.00     0.060 A 
HETATM    7  C   UNL     1      15.369  47.125  18.889  1.00  0.00     0.050 C 
ENDROOT
BRANCH   5   8
HETATM    8  N   UNL     1      16.219  52.006  15.687  1.00  0.00    -0.323 N 
HETATM    9  C   UNL     1      15.728  52.263  14.417  1.00  0.00     0.256 C 
HETATM   10  O   UNL     1      15.276  51.412  13.666  1.00  0.00    -0.267 OA
HETATM   11  H   UNL     1      16.724  52.737  16.112  1.00  0.00     0.169 HD
BRANCH   9  12
HETATM   12  C   UNL     1      15.757  53.666  13.902  1.00  0.00     0.032 A 
HETATM   13  C   UNL     1      17.005  54.433  13.856  1.00  0.00     0.017 A 
HETATM   14  C   UNL     1      17.001  55.790  13.371  1.00  0.00     0.010 A 
HETATM   15  C   UNL     1      15.745  56.388  12.926  1.00  0.00    -0.033 A 
HETATM   16  C   UNL     1      14.523  55.603  12.977  1.00  0.00     0.010 A 
HETATM   17  C   UNL     1      14.522  54.273  13.454  1.00  0.00     0.017 A 
BRANCH  15  18
HETATM   18  C   UNL     1      15.645  57.837  12.412  1.00  0.00     0.273 C 
BRANCH  18  19
HETATM   19  N   UNL     1      14.367  58.566  12.669  1.00  0.00    -0.064 N 
HETATM   20  C   UNL     1      14.644  59.953  13.196  1.00  0.00     0.263 C 
HETATM   21  C   UNL     1      13.326  60.722  13.490  1.00  0.00     0.262 C 
HETATM   22  N   UNL     1      12.451  60.791  12.247  1.00  0.00    -0.072 N 
HETATM   23  C   UNL     1      12.147  59.392  11.709  1.00  0.00     0.262 C 
HETATM   24  C   UNL     1      11.191  61.516  12.468  1.00  0.00     0.269 C 
HETATM   25  H   UNL     1      12.990  61.315  11.557  1.00  0.00     0.279 HD
HETATM   26  C   UNL     1      13.489  58.645  11.417  1.00  0.00     0.263 C 
HETATM   27  H   UNL     1      13.855  58.036  13.374  1.00  0.00     0.280 HD
ENDBRANCH  18  19
ENDBRANCH  15  18
ENDBRANCH   9  12
ENDBRANCH   5   8
BRANCH   1  28
HETATM   28  N   UNL     1      18.025  47.768  17.566  1.00  0.00    -0.188 N 
HETATM   29  H   UNL     1      18.144  47.039  16.914  1.00  0.00     0.184 HD
BRANCH  28  30
HETATM   30  C   UNL     1      18.917  47.897  18.620  1.00  0.00     0.727 A 
HETATM   31  N   UNL     1      18.848  46.997  19.623  1.00  0.00    -0.062 NA
HETATM   32  C   UNL     1      19.689  47.059  20.712  1.00  0.00     0.089 A 
HETATM   33  C   UNL     1      20.671  48.101  20.794  1.00  0.00     0.053 A 
HETATM   34  C   UNL     1      20.723  49.030  19.730  1.00  0.00     0.139 A 
HETATM   35  N   UNL     1      19.851  48.915  18.669  1.00  0.00    -0.075 NA
BRANCH  32  36
HETATM   36  C   UNL     1      19.508  46.005  21.759  1.00  0.00     0.011 A 
HETATM   37  C   UNL     1      18.788  44.761  21.516  1.00  0.00     0.017 A 
HETATM   38  C   UNL     1      18.642  43.775  22.562  1.00  0.00     0.020 A 
HETATM   39  C   UNL     1      19.225  44.054  23.848  1.00  0.00     0.116 A 
HETATM   40  N   UNL     1      19.918  45.254  24.070  1.00  0.00    -0.272 NA
HETATM   41  C   UNL     1      20.075  46.221  23.082  1.00  0.00     0.130 A 
ENDBRANCH  32  36
ENDBRANCH  28  30
ENDBRANCH   1  28
TORSDOF 7
ENDMDL
