REMARK VINA RESULT:    -7.210      3.814     12.249
REMARK INTER + INTRA:         -10.831
REMARK INTER:                 -10.875
REMARK INTRA:                   0.044
REMARK UNBOUND:                -0.671
REMARK  7 active torsions:
REMARK  status: ('A' for Active; 'I' for Inactive)
REMARK    1  A    between atoms: C_1  and  N_2 
REMARK    2  A    between atoms: N_2  and  C_16 
REMARK    3  A    between atoms: C_10  and  N_11 
REMARK       I    between atoms: N_11  and  C_25 
REMARK    4  A    between atoms: N_13  and  C_32 
REMARK    5  A    between atoms: C_17  and  C_20 
REMARK    6  A    between atoms: C_25  and  C_26 
REMARK    7  A    between atoms: C_31  and  C_32 
ROOT
HETATM    1  C   UNL     1      18.220  48.709  18.953  1.00  0.00     0.057 A 
HETATM    2  C   UNL     1      17.206  47.655  19.081  1.00  0.00    -0.035 A 
HETATM    3  C   UNL     1      16.097  47.667  18.171  1.00  0.00     0.011 A 
HETATM    4  C   UNL     1      15.987  48.688  17.159  1.00  0.00     0.030 A 
HETATM    5  C   UNL     1      16.971  49.711  17.029  1.00  0.00     0.037 A 
HETATM    6  C   UNL     1      18.097  49.705  17.951  1.00  0.00     0.060 A 
HETATM    7  C   UNL     1      17.276  46.533  20.143  1.00  0.00     0.050 C 
ENDROOT
BRANCH   5   8
HETATM    8  N   UNL     1      16.797  50.692  15.987  1.00  0.00    -0.323 N 
HETATM    9  C   UNL     1      15.810  51.658  15.882  1.00  0.00     0.256 C 
HETATM   10  O   UNL     1      14.797  51.687  16.565  1.00  0.00    -0.267 OA
HETATM   11  H   UNL     1      17.462  50.672  15.260  1.00  0.00     0.169 HD
BRANCH   9  12
HETATM   12  C   UNL     1      15.963  52.740  14.863  1.00  0.00     0.032 A 
HETATM   13  C   UNL     1      14.853  53.636  14.533  1.00  0.00     0.017 A 
HETATM   14  C   UNL     1      15.022  54.661  13.534  1.00  0.00     0.010 A 
HETATM   15  C   UNL     1      16.310  54.795  12.857  1.00  0.00    -0.033 A 
HETATM   16  C   UNL     1      17.397  53.895  13.207  1.00  0.00     0.010 A 
HETATM   17  C   UNL     1      17.234  52.889  14.186  1.00  0.00     0.017 A 
BRANCH  15  18
HETATM   18  C   UNL     1      16.575  55.846  11.763  1.00  0.00     0.273 C 
BRANCH  18  19
HETATM   19  N   UNL     1      15.849  57.146  11.874  1.00  0.00    -0.064 N 
HETATM   20  C   UNL     1      14.364  56.915  12.010  1.00  0.00     0.263 C 
HETATM   21  C   UNL     1      13.587  58.258  12.106  1.00  0.00     0.262 C 
HETATM   22  N   UNL     1      14.102  59.100  13.265  1.00  0.00    -0.072 N 
HETATM   23  C   UNL     1      15.604  59.357  13.132  1.00  0.00     0.262 C 
HETATM   24  C   UNL     1      13.395  60.381  13.406  1.00  0.00     0.269 C 
HETATM   25  H   UNL     1      13.920  58.554  14.107  1.00  0.00     0.279 HD
HETATM   26  C   UNL     1      16.359  57.991  13.044  1.00  0.00     0.263 C 
HETATM   27  H   UNL     1      16.030  57.666  11.015  1.00  0.00     0.280 HD
ENDBRANCH  18  19
ENDBRANCH  15  18
ENDBRANCH   9  12
ENDBRANCH   5   8
BRANCH   1  28
HETATM   28  N   UNL     1      19.321  48.752  19.811  1.00  0.00    -0.188 N 
HETATM   29  H   UNL     1      19.191  48.986  20.758  1.00  0.00     0.184 HD
BRANCH  28  30
HETATM   30  C   UNL     1      20.595  48.469  19.343  1.00  0.00     0.727 A 
HETATM   31  N   UNL     1      21.383  49.503  18.982  1.00  0.00    -0.062 NA
HETATM   32  C   UNL     1      22.657  49.310  18.497  1.00  0.00     0.089 A 
HETATM   33  C   UNL     1      23.176  47.978  18.371  1.00  0.00     0.053 A 
HETATM   34  C   UNL     1      22.331  46.914  18.757  1.00  0.00     0.139 A 
HETATM   35  N   UNL     1      21.064  47.173  19.232  1.00  0.00    -0.075 NA
BRANCH  32  36
HETATM   36  C   UNL     1      23.427  50.539  18.127  1.00  0.00     0.011 A 
HETATM   37  C   UNL     1      24.275  50.616  16.944  1.00  0.00     0.017 A 
HETATM   38  C   UNL     1      24.998  51.828  16.631  1.00  0.00     0.020 A 
HETATM   39  C   UNL     1      24.860  52.953  17.518  1.00  0.00     0.116 A 
HETATM   40  N   UNL     1      24.039  52.867  18.653  1.00  0.00    -0.272 NA
HETATM   41  C   UNL     1      23.331  51.715  18.978  1.00  0.00     0.130 A 
ENDBRANCH  32  36
ENDBRANCH  28  30
ENDBRANCH   1  28
TORSDOF 7
ENDMDL
