REMARK VINA RESULT:    -7.050      1.620     13.560
REMARK INTER + INTRA:         -10.606
REMARK INTER:                  -9.652
REMARK INTRA:                  -0.954
REMARK UNBOUND:                -0.671
REMARK  7 active torsions:
REMARK  status: ('A' for Active; 'I' for Inactive)
REMARK    1  A    between atoms: C_1  and  N_2 
REMARK    2  A    between atoms: N_2  and  C_16 
REMARK    3  A    between atoms: C_10  and  N_11 
REMARK       I    between atoms: N_11  and  C_25 
REMARK    4  A    between atoms: N_13  and  C_32 
REMARK    5  A    between atoms: C_17  and  C_20 
REMARK    6  A    between atoms: C_25  and  C_26 
REMARK    7  A    between atoms: C_31  and  C_32 
ROOT
HETATM    1  C   UNL     1      16.981  48.627  17.574  1.00  0.00     0.057 A 
HETATM    2  C   UNL     1      15.673  48.352  18.180  1.00  0.00    -0.035 A 
HETATM    3  C   UNL     1      14.614  49.296  17.963  1.00  0.00     0.011 A 
HETATM    4  C   UNL     1      14.834  50.478  17.168  1.00  0.00     0.030 A 
HETATM    5  C   UNL     1      16.103  50.746  16.575  1.00  0.00     0.037 A 
HETATM    6  C   UNL     1      17.181  49.794  16.794  1.00  0.00     0.060 A 
HETATM    7  C   UNL     1      15.378  47.098  19.036  1.00  0.00     0.050 C 
ENDROOT
BRANCH   5   8
HETATM    8  N   UNL     1      16.243  51.944  15.786  1.00  0.00    -0.323 N 
HETATM    9  C   UNL     1      15.761  52.186  14.510  1.00  0.00     0.256 C 
HETATM   10  O   UNL     1      15.315  51.325  13.766  1.00  0.00    -0.267 OA
HETATM   11  H   UNL     1      16.744  52.681  16.206  1.00  0.00     0.169 HD
BRANCH   9  12
HETATM   12  C   UNL     1      15.791  53.582  13.979  1.00  0.00     0.032 A 
HETATM   13  C   UNL     1      17.051  54.318  13.847  1.00  0.00     0.017 A 
HETATM   14  C   UNL     1      17.051  55.670  13.347  1.00  0.00     0.010 A 
HETATM   15  C   UNL     1      15.784  56.295  12.975  1.00  0.00    -0.033 A 
HETATM   16  C   UNL     1      14.549  55.541  13.112  1.00  0.00     0.010 A 
HETATM   17  C   UNL     1      14.546  54.216  13.602  1.00  0.00     0.017 A 
BRANCH  15  18
HETATM   18  C   UNL     1      15.686  57.741  12.453  1.00  0.00     0.273 C 
BRANCH  18  19
HETATM   19  N   UNL     1      14.381  58.446  12.631  1.00  0.00    -0.064 N 
HETATM   20  C   UNL     1      14.604  59.864  13.095  1.00  0.00     0.263 C 
HETATM   21  C   UNL     1      13.256  60.610  13.307  1.00  0.00     0.262 C 
HETATM   22  N   UNL     1      12.421  60.591  12.035  1.00  0.00    -0.072 N 
HETATM   23  C   UNL     1      12.173  59.158  11.561  1.00  0.00     0.262 C 
HETATM   24  C   UNL     1      11.136  61.290  12.178  1.00  0.00     0.269 C 
HETATM   25  H   UNL     1      12.969  61.094  11.336  1.00  0.00     0.279 HD
HETATM   26  C   UNL     1      13.544  58.436  11.350  1.00  0.00     0.263 C 
HETATM   27  H   UNL     1      13.861  57.937  13.346  1.00  0.00     0.280 HD
ENDBRANCH  18  19
ENDBRANCH  15  18
ENDBRANCH   9  12
ENDBRANCH   5   8
BRANCH   1  28
HETATM   28  N   UNL     1      18.052  47.747  17.752  1.00  0.00    -0.188 N 
HETATM   29  H   UNL     1      18.183  47.006  17.117  1.00  0.00     0.184 HD
BRANCH  28  30
HETATM   30  C   UNL     1      18.930  47.905  18.813  1.00  0.00     0.727 A 
HETATM   31  N   UNL     1      18.852  47.031  19.837  1.00  0.00    -0.062 NA
HETATM   32  C   UNL     1      19.680  47.122  20.934  1.00  0.00     0.089 A 
HETATM   33  C   UNL     1      20.659  48.169  21.001  1.00  0.00     0.053 A 
HETATM   34  C   UNL     1      20.721  49.070  19.915  1.00  0.00     0.139 A 
HETATM   35  N   UNL     1      19.862  48.926  18.847  1.00  0.00    -0.075 NA
BRANCH  32  36
HETATM   36  C   UNL     1      19.489  46.094  22.006  1.00  0.00     0.011 A 
HETATM   37  C   UNL     1      18.844  44.810  21.766  1.00  0.00     0.017 A 
HETATM   38  C   UNL     1      18.686  43.852  22.835  1.00  0.00     0.020 A 
HETATM   39  C   UNL     1      19.179  44.200  24.142  1.00  0.00     0.116 A 
HETATM   40  N   UNL     1      19.800  45.439  24.360  1.00  0.00    -0.272 NA
HETATM   41  C   UNL     1      19.968  46.380  23.350  1.00  0.00     0.130 A 
ENDBRANCH  32  36
ENDBRANCH  28  30
ENDBRANCH   1  28
TORSDOF 7
ENDMDL
