USER    Estimated Free Energy of Binding    =   +1.10 kcal/mol  [=(1)+(2)+(3)-(4)]
REMARK  7 active torsions:
REMARK  status: ('A' for Active; 'I' for Inactive)
REMARK    1  A    between atoms: C_1  and  N_2 
REMARK    2  A    between atoms: N_2  and  C_16 
REMARK    3  A    between atoms: C_10  and  N_11 
REMARK       I    between atoms: N_11  and  C_25 
REMARK    4  A    between atoms: N_13  and  C_32 
REMARK    5  A    between atoms: C_17  and  C_20 
REMARK    6  A    between atoms: C_25  and  C_26 
REMARK    7  A    between atoms: C_31  and  C_32 
ROOT
ATOM      1  C   UNL     1      19.285  -0.514  -4.080 +0.00 -0.00    +0.057 A 
ATOM      2  C   UNL     1      18.855  -1.882  -3.765 +0.00 +0.00    -0.035 A 
ATOM      3  C   UNL     1      18.014  -2.081  -2.619 +0.00 -0.00    +0.011 A 
ATOM      4  C   UNL     1      17.605  -0.964  -1.805 +0.00 -0.00    +0.030 A 
ATOM      5  C   UNL     1      18.018   0.366  -2.110 +0.00 -0.00    +0.037 A 
ATOM      6  C   UNL     1      18.872   0.573  -3.269 +0.00 -0.00    +0.060 A 
ATOM      7  C   UNL     1      19.257  -3.115  -4.607 +0.00 -0.00    +0.050 C 
ENDROOT
BRANCH   5   8
ATOM      8  N   UNL     1      17.560   1.432  -1.253 +0.00 +0.02    -0.323 N 
ATOM      9  C   UNL     1      18.244   2.577  -0.879 +0.00 -0.02    +0.256 C 
ATOM     10  O   UNL     1      19.441   2.755  -1.054 +0.00 +0.02    -0.267 OA
ATOM     11  H   UNL     1      16.650   1.333  -0.890 +0.00 -0.01    +0.169 HD
BRANCH   9  12
ATOM     12  C   UNL     1      17.494   3.676  -0.200 +0.00 -0.00    +0.032 A 
ATOM     13  C   UNL     1      16.283   3.403   0.578 +0.00 -0.00    +0.017 A 
ATOM     14  C   UNL     1      15.569   4.484   1.209 +0.00 -0.00    +0.010 A 
ATOM     15  C   UNL     1      16.066   5.850   1.066 +0.00 +0.00    -0.033 A 
ATOM     16  C   UNL     1      17.273   6.093   0.294 +0.00 -0.00    +0.010 A 
ATOM     17  C   UNL     1      17.975   5.036  -0.327 +0.00 -0.00    +0.017 A 
BRANCH  15  18
ATOM     18  C   UNL     1      15.356   7.068   1.687 +0.00 -0.02    +0.273 C 
BRANCH  18  19
ATOM     19  N   UNL     1      15.412   7.207   3.173 +0.00 +0.00    -0.064 N 
ATOM     20  C   UNL     1      14.285   6.440   3.820 +0.00 -0.02    +0.263 C 
ATOM     21  C   UNL     1      14.312   6.589   5.367 +0.00 -0.02    +0.262 C 
ATOM     22  N   UNL     1      15.653   6.140   5.931 +0.00 +0.01    -0.072 N 
ATOM     23  C   UNL     1      16.806   6.920   5.297 +0.00 -0.02    +0.262 C 
ATOM     24  C   UNL     1      15.731   6.253   7.394 +0.00 -0.02    +0.269 C 
ATOM     25  H   UNL     1      15.737   5.151   5.695 +0.00 -0.02    +0.279 HD
ATOM     26  C   UNL     1      16.757   6.747   3.743 +0.00 -0.02    +0.263 C 
ATOM     27  H   UNL     1      15.308   8.199   3.386 +0.00 -0.02    +0.280 HD
ENDBRANCH  18  19
ENDBRANCH  15  18
ENDBRANCH   9  12
ENDBRANCH   5   8
BRANCH   1  28
ATOM     28  N   UNL     1      20.105  -0.257  -5.181 +0.00 +0.01    -0.188 N 
ATOM     29  H   UNL     1      19.909  -0.687  -6.045 +0.00 -0.01    +0.184 HD
BRANCH  28  30
ATOM     30  C   UNL     1      21.192   0.597  -5.071 +0.00 -0.05    +0.727 A 
ATOM     31  N   UNL     1      21.032   1.741  -4.374 +0.00 +0.00    -0.062 NA
ATOM     32  C   UNL     1      22.057   2.649  -4.225 +0.00 -0.01    +0.089 A 
ATOM     33  C   UNL     1      23.336   2.382  -4.817 +0.00 -0.00    +0.053 A 
ATOM     34  C   UNL     1      23.477   1.176  -5.540 +0.00 -0.01    +0.139 A 
ATOM     35  N   UNL     1      22.412   0.310  -5.656 +0.00 +0.01    -0.075 NA
BRANCH  32  36
ATOM     36  C   UNL     1      21.750   3.882  -3.433 +0.00 -0.00    +0.011 A 
ATOM     37  C   UNL     1      22.687   4.466  -2.482 +0.00 -0.00    +0.017 A 
ATOM     38  C   UNL     1      22.342   5.659  -1.743 +0.00 -0.00    +0.020 A 
ATOM     39  C   UNL     1      21.050   6.251  -1.969 +0.00 -0.01    +0.116 A 
ATOM     40  N   UNL     1      20.157   5.681  -2.888 +0.00 +0.02    -0.272 NA
ATOM     41  C   UNL     1      20.462   4.534  -3.615 +0.00 -0.01    +0.130 A 
ENDBRANCH  32  36
ENDBRANCH  28  30
ENDBRANCH   1  28
TORSDOF 7
TER
ENDMDL
