USER    Estimated Free Energy of Binding    =   +1.10 kcal/mol  [=(1)+(2)+(3)-(4)]
REMARK  7 active torsions:
REMARK  status: ('A' for Active; 'I' for Inactive)
REMARK    1  A    between atoms: C_1  and  N_2 
REMARK    2  A    between atoms: N_2  and  C_16 
REMARK    3  A    between atoms: C_10  and  N_11 
REMARK       I    between atoms: N_11  and  C_25 
REMARK    4  A    between atoms: N_13  and  C_32 
REMARK    5  A    between atoms: C_17  and  C_20 
REMARK    6  A    between atoms: C_25  and  C_26 
REMARK    7  A    between atoms: C_31  and  C_32 
ROOT
ATOM      1  C   UNL     1      13.062   2.553  -2.684 +0.00 -0.00    +0.057 A 
ATOM      2  C   UNL     1      12.555   1.259  -3.154 +0.00 +0.00    -0.035 A 
ATOM      3  C   UNL     1      12.984   0.073  -2.470 +0.00 -0.00    +0.011 A 
ATOM      4  C   UNL     1      13.889   0.157  -1.350 +0.00 -0.00    +0.030 A 
ATOM      5  C   UNL     1      14.381   1.413  -0.889 +0.00 -0.00    +0.037 A 
ATOM      6  C   UNL     1      13.951   2.618  -1.580 +0.00 -0.00    +0.060 A 
ATOM      7  C   UNL     1      11.579   1.109  -4.345 +0.00 -0.00    +0.050 C 
ENDROOT
BRANCH   5   8
ATOM      8  N   UNL     1      15.275   1.417   0.243 +0.00 +0.02    -0.323 N 
ATOM      9  C   UNL     1      16.383   2.222   0.449 +0.00 -0.02    +0.256 C 
ATOM     10  O   UNL     1      16.902   2.918  -0.412 +0.00 +0.02    -0.267 OA
ATOM     11  H   UNL     1      15.072   0.769   0.955 +0.00 -0.01    +0.169 HD
BRANCH   9  12
ATOM     12  C   UNL     1      17.016   2.246   1.802 +0.00 -0.00    +0.032 A 
ATOM     13  C   UNL     1      16.375   1.603   2.953 +0.00 -0.00    +0.017 A 
ATOM     14  C   UNL     1      16.999   1.656   4.251 +0.00 -0.00    +0.010 A 
ATOM     15  C   UNL     1      18.273   2.354   4.406 +0.00 +0.00    -0.033 A 
ATOM     16  C   UNL     1      18.889   2.979   3.247 +0.00 -0.00    +0.010 A 
ATOM     17  C   UNL     1      18.281   2.930   1.973 +0.00 -0.00    +0.017 A 
BRANCH  15  18
ATOM     18  C   UNL     1      19.000   2.479   5.758 +0.00 -0.02    +0.273 C 
BRANCH  18  19
ATOM     19  N   UNL     1      19.011   3.824   6.407 +0.00 +0.00    -0.064 N 
ATOM     20  C   UNL     1      20.260   4.583   6.034 +0.00 -0.02    +0.263 C 
ATOM     21  C   UNL     1      20.301   5.978   6.716 +0.00 -0.02    +0.262 C 
ATOM     22  N   UNL     1      19.062   6.789   6.365 +0.00 +0.01    -0.072 N 
ATOM     23  C   UNL     1      17.786   6.040   6.753 +0.00 -0.02    +0.262 C 
ATOM     24  C   UNL     1      19.054   8.125   6.980 +0.00 -0.02    +0.269 C 
ATOM     25  H   UNL     1      19.092   6.918   5.353 +0.00 -0.02    +0.279 HD
ATOM     26  C   UNL     1      17.769   4.645   6.048 +0.00 -0.02    +0.263 C 
ATOM     27  H   UNL     1      19.000   3.671   7.415 +0.00 -0.02    +0.280 HD
ENDBRANCH  18  19
ENDBRANCH  15  18
ENDBRANCH   9  12
ENDBRANCH   5   8
BRANCH   1  28
ATOM     28  N   UNL     1      12.682   3.742  -3.311 +0.00 +0.01    -0.188 N 
ATOM     29  H   UNL     1      11.733   3.897  -3.525 +0.00 -0.01    +0.184 HD
BRANCH  28  30
ATOM     30  C   UNL     1      13.625   4.705  -3.635 +0.00 -0.05    +0.727 A 
ATOM     31  N   UNL     1      14.608   4.955  -2.746 +0.00 +0.00    -0.062 NA
ATOM     32  C   UNL     1      15.578   5.903  -2.983 +0.00 -0.01    +0.089 A 
ATOM     33  C   UNL     1      15.558   6.649  -4.208 +0.00 -0.00    +0.053 A 
ATOM     34  C   UNL     1      14.519   6.367  -5.123 +0.00 -0.01    +0.139 A 
ATOM     35  N   UNL     1      13.576   5.408  -4.825 +0.00 +0.01    -0.075 NA
BRANCH  32  36
ATOM     36  C   UNL     1      16.611   6.088  -1.915 +0.00 -0.00    +0.011 A 
ATOM     37  C   UNL     1      18.028   6.264  -2.205 +0.00 -0.00    +0.017 A 
ATOM     38  C   UNL     1      18.984   6.440  -1.137 +0.00 -0.00    +0.020 A 
ATOM     39  C   UNL     1      18.501   6.435   0.219 +0.00 -0.01    +0.116 A 
ATOM     40  N   UNL     1      17.134   6.267   0.486 +0.00 +0.02    -0.272 NA
ATOM     41  C   UNL     1      16.190   6.097  -0.522 +0.00 -0.01    +0.130 A 
ENDBRANCH  32  36
ENDBRANCH  28  30
ENDBRANCH   1  28
TORSDOF 7
TER
ENDMDL
