USER    Estimated Free Energy of Binding    =   +1.11 kcal/mol  [=(1)+(2)+(3)-(4)]
REMARK  7 active torsions:
REMARK  status: ('A' for Active; 'I' for Inactive)
REMARK    1  A    between atoms: C_1  and  N_2 
REMARK    2  A    between atoms: N_2  and  C_16 
REMARK    3  A    between atoms: C_10  and  N_11 
REMARK       I    between atoms: N_11  and  C_25 
REMARK    4  A    between atoms: N_13  and  C_32 
REMARK    5  A    between atoms: C_17  and  C_20 
REMARK    6  A    between atoms: C_25  and  C_26 
REMARK    7  A    between atoms: C_31  and  C_32 
ROOT
ATOM      1  C   UNL     1      21.229   1.261  -0.471 +0.00 -0.00    +0.057 A 
ATOM      2  C   UNL     1      20.691   1.197  -1.835 +0.00 +0.00    -0.035 A 
ATOM      3  C   UNL     1      19.442   1.851  -2.102 +0.00 -0.00    +0.011 A 
ATOM      4  C   UNL     1      18.741   2.552  -1.056 +0.00 -0.00    +0.030 A 
ATOM      5  C   UNL     1      19.262   2.619   0.269 +0.00 -0.00    +0.037 A 
ATOM      6  C   UNL     1      20.526   1.956   0.547 +0.00 -0.00    +0.060 A 
ATOM      7  C   UNL     1      21.403   0.465  -2.997 +0.00 -0.00    +0.050 C 
ENDROOT
BRANCH   5   8
ATOM      8  N   UNL     1      18.507   3.346   1.259 +0.00 +0.02    -0.323 N 
ATOM      9  C   UNL     1      18.359   3.049   2.604 +0.00 -0.02    +0.256 C 
ATOM     10  O   UNL     1      18.681   1.988   3.117 +0.00 +0.02    -0.267 OA
ATOM     11  H   UNL     1      18.041   4.152   0.940 +0.00 -0.01    +0.169 HD
BRANCH   9  12
ATOM     12  C   UNL     1      17.752   4.074   3.507 +0.00 -0.00    +0.032 A 
ATOM     13  C   UNL     1      17.031   5.230   2.969 +0.00 -0.00    +0.017 A 
ATOM     14  C   UNL     1      16.470   6.213   3.861 +0.00 -0.00    +0.010 A 
ATOM     15  C   UNL     1      16.627   6.043   5.304 +0.00 +0.00    -0.033 A 
ATOM     16  C   UNL     1      17.343   4.884   5.811 +0.00 -0.00    +0.010 A 
ATOM     17  C   UNL     1      17.895   3.919   4.939 +0.00 -0.00    +0.017 A 
BRANCH  15  18
ATOM     18  C   UNL     1      16.080   7.053   6.330 +0.00 -0.02    +0.273 C 
BRANCH  18  19
ATOM     19  N   UNL     1      14.598   7.118   6.501 +0.00 +0.01    -0.064 N 
ATOM     20  C   UNL     1      13.994   8.097   5.523 +0.00 -0.02    +0.263 C 
ATOM     21  C   UNL     1      12.453   8.196   5.699 +0.00 -0.02    +0.262 C 
ATOM     22  N   UNL     1      11.802   6.827   5.552 +0.00 +0.01    -0.072 N 
ATOM     23  C   UNL     1      12.392   5.828   6.549 +0.00 -0.02    +0.262 C 
ATOM     24  C   UNL     1      10.340   6.865   5.702 +0.00 -0.02    +0.269 C 
ATOM     25  H   UNL     1      12.005   6.524   4.600 +0.00 -0.02    +0.279 HD
ATOM     26  C   UNL     1      13.940   5.744   6.345 +0.00 -0.02    +0.263 C 
ATOM     27  H   UNL     1      14.419   7.441   7.452 +0.00 -0.02    +0.280 HD
ENDBRANCH  18  19
ENDBRANCH  15  18
ENDBRANCH   9  12
ENDBRANCH   5   8
BRANCH   1  28
ATOM     28  N   UNL     1      22.439   0.642  -0.148 +0.00 +0.01    -0.188 N 
ATOM     29  H   UNL     1      23.229   0.791  -0.717 +0.00 -0.01    +0.184 HD
BRANCH  28  30
ATOM     30  C   UNL     1      22.540  -0.180   0.963 +0.00 -0.05    +0.727 A 
ATOM     31  N   UNL     1      22.001   0.251   2.122 +0.00 +0.00    -0.062 NA
ATOM     32  C   UNL     1      22.066  -0.498   3.276 +0.00 -0.01    +0.089 A 
ATOM     33  C   UNL     1      22.719  -1.776   3.259 +0.00 -0.00    +0.053 A 
ATOM     34  C   UNL     1      23.274  -2.204   2.032 +0.00 -0.01    +0.139 A 
ATOM     35  N   UNL     1      23.178  -1.406   0.913 +0.00 +0.01    -0.075 NA
BRANCH  32  36
ATOM     36  C   UNL     1      21.433   0.094   4.497 +0.00 -0.00    +0.011 A 
ATOM     37  C   UNL     1      21.450   1.523   4.784 +0.00 -0.00    +0.017 A 
ATOM     38  C   UNL     1      20.823   2.043   5.977 +0.00 -0.00    +0.020 A 
ATOM     39  C   UNL     1      20.186   1.115   6.874 +0.00 -0.01    +0.116 A 
ATOM     40  N   UNL     1      20.176  -0.258   6.586 +0.00 +0.02    -0.272 NA
ATOM     41  C   UNL     1      20.769  -0.788   5.445 +0.00 -0.01    +0.130 A 
ENDBRANCH  32  36
ENDBRANCH  28  30
ENDBRANCH   1  28
TORSDOF 7
TER
ENDMDL
