USER    Estimated Free Energy of Binding    =   +1.10 kcal/mol  [=(1)+(2)+(3)-(4)]
REMARK  7 active torsions:
REMARK  status: ('A' for Active; 'I' for Inactive)
REMARK    1  A    between atoms: C_1  and  N_2 
REMARK    2  A    between atoms: N_2  and  C_16 
REMARK    3  A    between atoms: C_10  and  N_11 
REMARK       I    between atoms: N_11  and  C_25 
REMARK    4  A    between atoms: N_13  and  C_32 
REMARK    5  A    between atoms: C_17  and  C_20 
REMARK    6  A    between atoms: C_25  and  C_26 
REMARK    7  A    between atoms: C_31  and  C_32 
ROOT
ATOM      1  C   UNL     1      17.290  -0.649  -2.739 +0.00 -0.00    +0.057 A 
ATOM      2  C   UNL     1      18.081  -1.747  -3.307 +0.00 +0.00    -0.035 A 
ATOM      3  C   UNL     1      19.280  -2.143  -2.625 +0.00 -0.00    +0.011 A 
ATOM      4  C   UNL     1      19.690  -1.478  -1.414 +0.00 -0.00    +0.030 A 
ATOM      5  C   UNL     1      18.923  -0.414  -0.857 +0.00 -0.00    +0.037 A 
ATOM      6  C   UNL     1      17.708  -0.006  -1.545 +0.00 -0.00    +0.060 A 
ATOM      7  C   UNL     1      17.686  -2.499  -4.599 +0.00 -0.00    +0.050 C 
ENDROOT
BRANCH   5   8
ATOM      8  N   UNL     1      19.392   0.196   0.362 +0.00 +0.02    -0.323 N 
ATOM      9  C   UNL     1      19.364   1.537   0.710 +0.00 -0.02    +0.256 C 
ATOM     10  O   UNL     1      19.123   2.448  -0.068 +0.00 +0.02    -0.267 OA
ATOM     11  H   UNL     1      19.781  -0.415   1.029 +0.00 -0.01    +0.169 HD
BRANCH   9  12
ATOM     12  C   UNL     1      19.660   1.923   2.123 +0.00 -0.00    +0.032 A 
ATOM     13  C   UNL     1      20.546   1.112   2.963 +0.00 -0.00    +0.017 A 
ATOM     14  C   UNL     1      20.801   1.498   4.328 +0.00 -0.00    +0.010 A 
ATOM     15  C   UNL     1      20.169   2.702   4.862 +0.00 +0.00    -0.033 A 
ATOM     16  C   UNL     1      19.299   3.491   4.005 +0.00 -0.00    +0.010 A 
ATOM     17  C   UNL     1      19.046   3.116   2.667 +0.00 -0.00    +0.017 A 
BRANCH  15  18
ATOM     18  C   UNL     1      20.368   3.178   6.314 +0.00 -0.02    +0.273 C 
BRANCH  18  19
ATOM     19  N   UNL     1      21.232   4.377   6.528 +0.00 +0.00    -0.064 N 
ATOM     20  C   UNL     1      22.334   4.428   5.498 +0.00 -0.02    +0.263 C 
ATOM     21  C   UNL     1      23.257   5.659   5.717 +0.00 -0.02    +0.262 C 
ATOM     22  N   UNL     1      22.452   6.950   5.699 +0.00 +0.01    -0.072 N 
ATOM     23  C   UNL     1      21.341   6.921   6.750 +0.00 -0.02    +0.262 C 
ATOM     24  C   UNL     1      23.281   8.149   5.895 +0.00 -0.02    +0.269 C 
ATOM     25  H   UNL     1      22.042   7.009   4.767 +0.00 -0.02    +0.279 HD
ATOM     26  C   UNL     1      20.425   5.678   6.501 +0.00 -0.02    +0.263 C 
ATOM     27  H   UNL     1      21.645   4.287   7.457 +0.00 -0.02    +0.280 HD
ENDBRANCH  18  19
ENDBRANCH  15  18
ENDBRANCH   9  12
ENDBRANCH   5   8
BRANCH   1  28
ATOM     28  N   UNL     1      16.116  -0.217  -3.358 +0.00 +0.01    -0.188 N 
ATOM     29  H   UNL     1      15.455  -0.880  -3.666 +0.00 -0.01    +0.184 HD
BRANCH  28  30
ATOM     30  C   UNL     1      15.868   1.135  -3.545 +0.00 -0.05    +0.727 A 
ATOM     31  N   UNL     1      16.195   1.983  -2.548 +0.00 +0.00    -0.062 NA
ATOM     32  C   UNL     1      15.973   3.338  -2.647 +0.00 -0.01    +0.089 A 
ATOM     33  C   UNL     1      15.384   3.878  -3.838 +0.00 -0.00    +0.053 A 
ATOM     34  C   UNL     1      15.053   2.968  -4.868 +0.00 -0.01    +0.139 A 
ATOM     35  N   UNL     1      15.297   1.622  -4.707 +0.00 +0.01    -0.075 NA
BRANCH  32  36
ATOM     36  C   UNL     1      16.375   4.171  -1.469 +0.00 -0.00    +0.011 A 
ATOM     37  C   UNL     1      17.060   5.451  -1.600 +0.00 -0.00    +0.017 A 
ATOM     38  C   UNL     1      17.425   6.216  -0.431 +0.00 -0.00    +0.020 A 
ATOM     39  C   UNL     1      17.097   5.681   0.864 +0.00 -0.01    +0.116 A 
ATOM     40  N   UNL     1      16.436   4.449   0.979 +0.00 +0.02    -0.272 NA
ATOM     41  C   UNL     1      16.071   3.691  -0.129 +0.00 -0.01    +0.130 A 
ENDBRANCH  32  36
ENDBRANCH  28  30
ENDBRANCH   1  28
TORSDOF 7
TER
ENDMDL
