USER    Estimated Free Energy of Binding    =   +1.10 kcal/mol  [=(1)+(2)+(3)-(4)]
REMARK  7 active torsions:
REMARK  status: ('A' for Active; 'I' for Inactive)
REMARK    1  A    between atoms: C_1  and  N_2 
REMARK    2  A    between atoms: N_2  and  C_16 
REMARK    3  A    between atoms: C_10  and  N_11 
REMARK       I    between atoms: N_11  and  C_25 
REMARK    4  A    between atoms: N_13  and  C_32 
REMARK    5  A    between atoms: C_17  and  C_20 
REMARK    6  A    between atoms: C_25  and  C_26 
REMARK    7  A    between atoms: C_31  and  C_32 
ROOT
ATOM      1  C   UNL     1      12.440   2.461   0.074 +0.00 -0.00    +0.057 A 
ATOM      2  C   UNL     1      11.252   3.320   0.138 +0.00 +0.00    -0.035 A 
ATOM      3  C   UNL     1      11.422   4.685   0.547 +0.00 -0.00    +0.011 A 
ATOM      4  C   UNL     1      12.729   5.194   0.883 +0.00 -0.00    +0.030 A 
ATOM      5  C   UNL     1      13.886   4.363   0.819 +0.00 -0.00    +0.037 A 
ATOM      6  C   UNL     1      13.718   2.978   0.408 +0.00 -0.00    +0.060 A 
ATOM      7  C   UNL     1       9.828   2.830  -0.218 +0.00 -0.00    +0.050 C 
ENDROOT
BRANCH   5   8
ATOM      8  N   UNL     1      15.159   4.946   1.162 +0.00 +0.02    -0.323 N 
ATOM      9  C   UNL     1      16.223   4.345   1.816 +0.00 -0.02    +0.256 C 
ATOM     10  O   UNL     1      16.159   3.272   2.397 +0.00 +0.02    -0.267 OA
ATOM     11  H   UNL     1      15.288   5.886   0.900 +0.00 -0.01    +0.169 HD
BRANCH   9  12
ATOM     12  C   UNL     1      17.544   5.043   1.838 +0.00 -0.00    +0.032 A 
ATOM     13  C   UNL     1      17.662   6.459   1.480 +0.00 -0.00    +0.017 A 
ATOM     14  C   UNL     1      18.951   7.104   1.493 +0.00 -0.00    +0.010 A 
ATOM     15  C   UNL     1      20.133   6.333   1.869 +0.00 +0.00    -0.033 A 
ATOM     16  C   UNL     1      19.987   4.931   2.226 +0.00 -0.00    +0.010 A 
ATOM     17  C   UNL     1      18.725   4.296   2.212 +0.00 -0.00    +0.017 A 
BRANCH  15  18
ATOM     18  C   UNL     1      21.551   6.934   1.891 +0.00 -0.02    +0.273 C 
BRANCH  18  19
ATOM     19  N   UNL     1      22.133   7.264   3.226 +0.00 +0.01    -0.064 N 
ATOM     20  C   UNL     1      21.054   7.723   4.176 +0.00 -0.02    +0.263 C 
ATOM     21  C   UNL     1      21.642   8.092   5.567 +0.00 -0.02    +0.262 C 
ATOM     22  N   UNL     1      22.409   6.919   6.159 +0.00 +0.01    -0.072 N 
ATOM     23  C   UNL     1      23.519   6.453   5.215 +0.00 -0.02    +0.262 C 
ATOM     24  C   UNL     1      22.982   7.213   7.481 +0.00 -0.02    +0.269 C 
ATOM     25  H   UNL     1      21.725   6.172   6.280 +0.00 -0.02    +0.279 HD
ATOM     26  C   UNL     1      22.897   6.082   3.829 +0.00 -0.02    +0.263 C 
ATOM     27  H   UNL     1      22.799   8.024   3.083 +0.00 -0.02    +0.280 HD
ENDBRANCH  18  19
ENDBRANCH  15  18
ENDBRANCH   9  12
ENDBRANCH   5   8
BRANCH   1  28
ATOM     28  N   UNL     1      12.337   1.124  -0.315 +0.00 +0.01    -0.188 N 
ATOM     29  H   UNL     1      11.801   0.887  -1.106 +0.00 -0.01    +0.184 HD
BRANCH  28  30
ATOM     30  C   UNL     1      12.981   0.126   0.401 +0.00 -0.05    +0.727 A 
ATOM     31  N   UNL     1      14.231   0.372   0.847 +0.00 +0.00    -0.062 NA
ATOM     32  C   UNL     1      14.946  -0.568   1.556 +0.00 -0.01    +0.089 A 
ATOM     33  C   UNL     1      14.357  -1.845   1.839 +0.00 -0.00    +0.053 A 
ATOM     34  C   UNL     1      13.047  -2.076   1.361 +0.00 -0.01    +0.139 A 
ATOM     35  N   UNL     1      12.385  -1.095   0.655 +0.00 +0.01    -0.075 NA
BRANCH  32  36
ATOM     36  C   UNL     1      16.323  -0.175   1.991 +0.00 -0.00    +0.011 A 
ATOM     37  C   UNL     1      16.847  -0.464   3.320 +0.00 -0.00    +0.017 A 
ATOM     38  C   UNL     1      18.185  -0.063   3.689 +0.00 -0.00    +0.020 A 
ATOM     39  C   UNL     1      18.984   0.630   2.713 +0.00 -0.01    +0.116 A 
ATOM     40  N   UNL     1      18.469   0.902   1.436 +0.00 +0.02    -0.272 NA
ATOM     41  C   UNL     1      17.186   0.526   1.052 +0.00 -0.01    +0.130 A 
ENDBRANCH  32  36
ENDBRANCH  28  30
ENDBRANCH   1  28
TORSDOF 7
TER
ENDMDL
