REMARK VINA RESULT:    -9.367      2.025      2.801
REMARK INTER + INTRA:         -13.951
REMARK INTER:                 -13.525
REMARK INTRA:                  -0.426
REMARK UNBOUND:                -0.750
REMARK  7 active torsions:
REMARK  status: ('A' for Active; 'I' for Inactive)
REMARK    1  A    between atoms: C_1  and  N_2 
REMARK    2  A    between atoms: N_2  and  C_16 
REMARK    3  A    between atoms: C_10  and  N_11 
REMARK       I    between atoms: N_11  and  C_25 
REMARK    4  A    between atoms: N_13  and  C_32 
REMARK    5  A    between atoms: C_17  and  C_20 
REMARK    6  A    between atoms: C_25  and  C_26 
REMARK    7  A    between atoms: C_31  and  C_32 
ROOT
HETATM    1  C   UNL     1      17.297  48.462  19.007  1.00  0.00     0.057 A 
HETATM    2  C   UNL     1      16.177  47.515  18.950  1.00  0.00    -0.035 A 
HETATM    3  C   UNL     1      15.208  47.673  17.903  1.00  0.00     0.011 A 
HETATM    4  C   UNL     1      15.337  48.734  16.936  1.00  0.00     0.030 A 
HETATM    5  C   UNL     1      16.425  49.654  16.987  1.00  0.00     0.037 A 
HETATM    6  C   UNL     1      17.409  49.500  18.047  1.00  0.00     0.060 A 
HETATM    7  C   UNL     1      15.992  46.355  19.956  1.00  0.00     0.050 C 
ENDROOT
BRANCH   5   8
HETATM    8  N   UNL     1      16.492  50.683  15.979  1.00  0.00    -0.323 N 
HETATM    9  C   UNL     1      15.617  51.739  15.781  1.00  0.00     0.256 C 
HETATM   10  O   UNL     1      14.521  51.837  16.312  1.00  0.00    -0.267 OA
HETATM   11  H   UNL     1      17.251  50.628  15.355  1.00  0.00     0.169 HD
BRANCH   9  12
HETATM   12  C   UNL     1      16.012  52.838  14.848  1.00  0.00     0.032 A 
HETATM   13  C   UNL     1      17.168  53.694  15.127  1.00  0.00     0.017 A 
HETATM   14  C   UNL     1      17.516  54.758  14.219  1.00  0.00     0.010 A 
HETATM   15  C   UNL     1      16.707  54.971  13.022  1.00  0.00    -0.033 A 
HETATM   16  C   UNL     1      15.568  54.104  12.767  1.00  0.00     0.010 A 
HETATM   17  C   UNL     1      15.223  53.061  13.655  1.00  0.00     0.017 A 
BRANCH  15  18
HETATM   18  C   UNL     1      16.992  56.095  12.008  1.00  0.00     0.273 C 
BRANCH  18  19
HETATM   19  N   UNL     1      16.128  57.311  12.074  1.00  0.00    -0.064 N 
HETATM   20  C   UNL     1      14.673  56.922  12.178  1.00  0.00     0.263 C 
HETATM   21  C   UNL     1      13.754  58.175  12.227  1.00  0.00     0.262 C 
HETATM   22  N   UNL     1      14.144  59.088  13.381  1.00  0.00    -0.072 N 
HETATM   23  C   UNL     1      15.612  59.505  13.280  1.00  0.00     0.262 C 
HETATM   24  C   UNL     1      13.299  60.287  13.477  1.00  0.00     0.269 C 
HETATM   25  H   UNL     1      13.999  58.541  14.229  1.00  0.00     0.279 HD
HETATM   26  C   UNL     1      16.512  58.227  13.239  1.00  0.00     0.263 C 
HETATM   27  H   UNL     1      16.275  57.831  11.209  1.00  0.00     0.280 HD
ENDBRANCH  18  19
ENDBRANCH  15  18
ENDBRANCH   9  12
ENDBRANCH   5   8
BRANCH   1  28
HETATM   28  N   UNL     1      18.270  48.361  20.004  1.00  0.00    -0.188 N 
HETATM   29  H   UNL     1      18.045  48.606  20.931  1.00  0.00     0.184 HD
BRANCH  28  30
HETATM   30  C   UNL     1      19.549  47.920  19.703  1.00  0.00     0.727 A 
HETATM   31  N   UNL     1      20.573  48.383  20.450  1.00  0.00    -0.062 NA
HETATM   32  C   UNL     1      21.875  48.005  20.212  1.00  0.00     0.089 A 
HETATM   33  C   UNL     1      22.166  47.089  19.146  1.00  0.00     0.053 A 
HETATM   34  C   UNL     1      21.076  46.618  18.380  1.00  0.00     0.139 A 
HETATM   35  N   UNL     1      19.796  47.037  18.667  1.00  0.00    -0.075 NA
BRANCH  32  36
HETATM   36  C   UNL     1      22.919  48.594  21.108  1.00  0.00     0.011 A 
HETATM   37  C   UNL     1      22.923  48.402  22.553  1.00  0.00     0.017 A 
HETATM   38  C   UNL     1      23.956  48.992  23.374  1.00  0.00     0.020 A 
HETATM   39  C   UNL     1      24.976  49.775  22.728  1.00  0.00     0.116 A 
HETATM   40  N   UNL     1      24.963  49.951  21.336  1.00  0.00    -0.272 NA
HETATM   41  C   UNL     1      23.983  49.394  20.521  1.00  0.00     0.130 A 
ENDBRANCH  32  36
ENDBRANCH  28  30
ENDBRANCH   1  28
TORSDOF 7
ENDMDL
