MODEL 1
REMARK VINA RESULT:    -9.862      0.000      0.000
REMARK INTER + INTRA:         -14.569
REMARK INTER:                 -14.161
REMARK INTRA:                  -0.408
REMARK UNBOUND:                -0.671
REMARK  7 active torsions:
REMARK  status: ('A' for Active; 'I' for Inactive)
REMARK    1  A    between atoms: C_1  and  N_2 
REMARK    2  A    between atoms: N_2  and  C_16 
REMARK    3  A    between atoms: C_10  and  N_11 
REMARK       I    between atoms: N_11  and  C_25 
REMARK    4  A    between atoms: N_13  and  C_32 
REMARK    5  A    between atoms: C_17  and  C_20 
REMARK    6  A    between atoms: C_25  and  C_26 
REMARK    7  A    between atoms: C_31  and  C_32 
ROOT
HETATM    1  C   UNL     1      15.787  54.680  12.383  1.00  0.00     0.057 A 
HETATM    2  C   UNL     1      16.872  54.545  11.404  1.00  0.00    -0.035 A 
HETATM    3  C   UNL     1      17.866  53.536  11.630  1.00  0.00     0.011 A 
HETATM    4  C   UNL     1      17.795  52.678  12.787  1.00  0.00     0.030 A 
HETATM    5  C   UNL     1      16.740  52.805  13.737  1.00  0.00     0.037 A 
HETATM    6  C   UNL     1      15.731  53.828  13.515  1.00  0.00     0.060 A 
HETATM    7  C   UNL     1      16.995  55.432  10.143  1.00  0.00     0.050 C 
ENDROOT
BRANCH   5   8
HETATM    8  N   UNL     1      16.731  51.905  14.864  1.00  0.00    -0.323 N 
HETATM    9  C   UNL     1      15.730  51.730  15.806  1.00  0.00     0.256 C 
HETATM   10  O   UNL     1      14.774  52.478  15.946  1.00  0.00    -0.267 OA
HETATM   11  H   UNL     1      17.534  51.347  14.978  1.00  0.00     0.169 HD
BRANCH   9  12
HETATM   12  C   UNL     1      15.810  50.563  16.737  1.00  0.00     0.032 A 
HETATM   13  C   UNL     1      17.078  49.870  16.978  1.00  0.00     0.017 A 
HETATM   14  C   UNL     1      17.124  48.736  17.868  1.00  0.00     0.010 A 
HETATM   15  C   UNL     1      15.897  48.290  18.524  1.00  0.00    -0.033 A 
HETATM   16  C   UNL     1      14.654  49.000  18.270  1.00  0.00     0.010 A 
HETATM   17  C   UNL     1      14.605  50.110  17.398  1.00  0.00     0.017 A 
BRANCH  15  18
HETATM   18  C   UNL     1      15.850  47.077  19.472  1.00  0.00     0.273 C 
BRANCH  18  19
HETATM   19  N   UNL     1      17.083  46.774  20.257  1.00  0.00    -0.064 N 
HETATM   20  C   UNL     1      17.304  47.821  21.322  1.00  0.00     0.263 C 
HETATM   21  C   UNL     1      18.596  47.535  22.138  1.00  0.00     0.262 C 
HETATM   22  N   UNL     1      18.547  46.146  22.760  1.00  0.00    -0.072 N 
HETATM   23  C   UNL     1      18.340  45.072  21.690  1.00  0.00     0.262 C 
HETATM   24  C   UNL     1      19.745  45.827  23.551  1.00  0.00     0.269 C 
HETATM   25  H   UNL     1      17.751  46.154  23.397  1.00  0.00     0.279 HD
HETATM   26  C   UNL     1      17.033  45.381  20.891  1.00  0.00     0.263 C 
HETATM   27  H   UNL     1      17.866  46.790  19.604  1.00  0.00     0.280 HD
ENDBRANCH  18  19
ENDBRANCH  15  18
ENDBRANCH   9  12
ENDBRANCH   5   8
BRANCH   1  28
HETATM   28  N   UNL     1      14.791  55.646  12.219  1.00  0.00    -0.188 N 
HETATM   29  H   UNL     1      13.912  55.383  11.861  1.00  0.00     0.184 HD
BRANCH  28  30
HETATM   30  C   UNL     1      15.026  56.970  12.556  1.00  0.00     0.727 A 
HETATM   31  N   UNL     1      14.025  57.858  12.376  1.00  0.00    -0.062 NA
HETATM   32  C   UNL     1      14.178  59.193  12.675  1.00  0.00     0.089 A 
HETATM   33  C   UNL     1      15.428  59.668  13.195  1.00  0.00     0.053 A 
HETATM   34  C   UNL     1      16.458  58.718  13.376  1.00  0.00     0.139 A 
HETATM   35  N   UNL     1      16.244  57.395  13.055  1.00  0.00    -0.075 NA
BRANCH  32  36
HETATM   36  C   UNL     1      12.994  60.076  12.425  1.00  0.00     0.011 A 
HETATM   37  C   UNL     1      12.897  61.435  12.942  1.00  0.00     0.017 A 
HETATM   38  C   UNL     1      11.732  62.246  12.672  1.00  0.00     0.020 A 
HETATM   39  C   UNL     1      10.672  61.675  11.883  1.00  0.00     0.116 A 
HETATM   40  N   UNL     1      10.777  60.366  11.390  1.00  0.00    -0.272 NA
HETATM   41  C   UNL     1      11.887  59.563  11.632  1.00  0.00     0.130 A 
ENDBRANCH  32  36
ENDBRANCH  28  30
ENDBRANCH   1  28
TORSDOF 7
ENDMDL
MODEL 2
REMARK VINA RESULT:    -7.210      3.814     12.249
REMARK INTER + INTRA:         -10.831
REMARK INTER:                 -10.875
REMARK INTRA:                   0.044
REMARK UNBOUND:                -0.671
REMARK  7 active torsions:
REMARK  status: ('A' for Active; 'I' for Inactive)
REMARK    1  A    between atoms: C_1  and  N_2 
REMARK    2  A    between atoms: N_2  and  C_16 
REMARK    3  A    between atoms: C_10  and  N_11 
REMARK       I    between atoms: N_11  and  C_25 
REMARK    4  A    between atoms: N_13  and  C_32 
REMARK    5  A    between atoms: C_17  and  C_20 
REMARK    6  A    between atoms: C_25  and  C_26 
REMARK    7  A    between atoms: C_31  and  C_32 
ROOT
HETATM    1  C   UNL     1      18.220  48.709  18.953  1.00  0.00     0.057 A 
HETATM    2  C   UNL     1      17.206  47.655  19.081  1.00  0.00    -0.035 A 
HETATM    3  C   UNL     1      16.097  47.667  18.171  1.00  0.00     0.011 A 
HETATM    4  C   UNL     1      15.987  48.688  17.159  1.00  0.00     0.030 A 
HETATM    5  C   UNL     1      16.971  49.711  17.029  1.00  0.00     0.037 A 
HETATM    6  C   UNL     1      18.097  49.705  17.951  1.00  0.00     0.060 A 
HETATM    7  C   UNL     1      17.276  46.533  20.143  1.00  0.00     0.050 C 
ENDROOT
BRANCH   5   8
HETATM    8  N   UNL     1      16.797  50.692  15.987  1.00  0.00    -0.323 N 
HETATM    9  C   UNL     1      15.810  51.658  15.882  1.00  0.00     0.256 C 
HETATM   10  O   UNL     1      14.797  51.687  16.565  1.00  0.00    -0.267 OA
HETATM   11  H   UNL     1      17.462  50.672  15.260  1.00  0.00     0.169 HD
BRANCH   9  12
HETATM   12  C   UNL     1      15.963  52.740  14.863  1.00  0.00     0.032 A 
HETATM   13  C   UNL     1      14.853  53.636  14.533  1.00  0.00     0.017 A 
HETATM   14  C   UNL     1      15.022  54.661  13.534  1.00  0.00     0.010 A 
HETATM   15  C   UNL     1      16.310  54.795  12.857  1.00  0.00    -0.033 A 
HETATM   16  C   UNL     1      17.397  53.895  13.207  1.00  0.00     0.010 A 
HETATM   17  C   UNL     1      17.234  52.889  14.186  1.00  0.00     0.017 A 
BRANCH  15  18
HETATM   18  C   UNL     1      16.575  55.846  11.763  1.00  0.00     0.273 C 
BRANCH  18  19
HETATM   19  N   UNL     1      15.849  57.146  11.874  1.00  0.00    -0.064 N 
HETATM   20  C   UNL     1      14.364  56.915  12.010  1.00  0.00     0.263 C 
HETATM   21  C   UNL     1      13.587  58.258  12.106  1.00  0.00     0.262 C 
HETATM   22  N   UNL     1      14.102  59.100  13.265  1.00  0.00    -0.072 N 
HETATM   23  C   UNL     1      15.604  59.357  13.132  1.00  0.00     0.262 C 
HETATM   24  C   UNL     1      13.395  60.381  13.406  1.00  0.00     0.269 C 
HETATM   25  H   UNL     1      13.920  58.554  14.107  1.00  0.00     0.279 HD
HETATM   26  C   UNL     1      16.359  57.991  13.044  1.00  0.00     0.263 C 
HETATM   27  H   UNL     1      16.030  57.666  11.015  1.00  0.00     0.280 HD
ENDBRANCH  18  19
ENDBRANCH  15  18
ENDBRANCH   9  12
ENDBRANCH   5   8
BRANCH   1  28
HETATM   28  N   UNL     1      19.321  48.752  19.811  1.00  0.00    -0.188 N 
HETATM   29  H   UNL     1      19.191  48.986  20.758  1.00  0.00     0.184 HD
BRANCH  28  30
HETATM   30  C   UNL     1      20.595  48.469  19.343  1.00  0.00     0.727 A 
HETATM   31  N   UNL     1      21.383  49.503  18.982  1.00  0.00    -0.062 NA
HETATM   32  C   UNL     1      22.657  49.310  18.497  1.00  0.00     0.089 A 
HETATM   33  C   UNL     1      23.176  47.978  18.371  1.00  0.00     0.053 A 
HETATM   34  C   UNL     1      22.331  46.914  18.757  1.00  0.00     0.139 A 
HETATM   35  N   UNL     1      21.064  47.173  19.232  1.00  0.00    -0.075 NA
BRANCH  32  36
HETATM   36  C   UNL     1      23.427  50.539  18.127  1.00  0.00     0.011 A 
HETATM   37  C   UNL     1      24.275  50.616  16.944  1.00  0.00     0.017 A 
HETATM   38  C   UNL     1      24.998  51.828  16.631  1.00  0.00     0.020 A 
HETATM   39  C   UNL     1      24.860  52.953  17.518  1.00  0.00     0.116 A 
HETATM   40  N   UNL     1      24.039  52.867  18.653  1.00  0.00    -0.272 NA
HETATM   41  C   UNL     1      23.331  51.715  18.978  1.00  0.00     0.130 A 
ENDBRANCH  32  36
ENDBRANCH  28  30
ENDBRANCH   1  28
TORSDOF 7
ENDMDL
MODEL 3
REMARK VINA RESULT:    -7.130      3.072     12.421
REMARK INTER + INTRA:         -10.719
REMARK INTER:                  -9.822
REMARK INTRA:                  -0.897
REMARK UNBOUND:                -0.671
REMARK  7 active torsions:
REMARK  status: ('A' for Active; 'I' for Inactive)
REMARK    1  A    between atoms: C_1  and  N_2 
REMARK    2  A    between atoms: N_2  and  C_16 
REMARK    3  A    between atoms: C_10  and  N_11 
REMARK       I    between atoms: N_11  and  C_25 
REMARK    4  A    between atoms: N_13  and  C_32 
REMARK    5  A    between atoms: C_17  and  C_20 
REMARK    6  A    between atoms: C_25  and  C_26 
REMARK    7  A    between atoms: C_31  and  C_32 
ROOT
HETATM    1  C   UNL     1      16.982  48.702  17.673  1.00  0.00     0.057 A 
HETATM    2  C   UNL     1      15.651  48.382  18.203  1.00  0.00    -0.035 A 
HETATM    3  C   UNL     1      14.572  49.282  17.911  1.00  0.00     0.011 A 
HETATM    4  C   UNL     1      14.794  50.464  17.116  1.00  0.00     0.030 A 
HETATM    5  C   UNL     1      16.084  50.775  16.597  1.00  0.00     0.037 A 
HETATM    6  C   UNL     1      17.183  49.868  16.892  1.00  0.00     0.060 A 
HETATM    7  C   UNL     1      15.354  47.126  19.055  1.00  0.00     0.050 C 
ENDROOT
BRANCH   5   8
HETATM    8  N   UNL     1      16.226  51.970  15.803  1.00  0.00    -0.323 N 
HETATM    9  C   UNL     1      15.758  52.201  14.520  1.00  0.00     0.256 C 
HETATM   10  O   UNL     1      15.327  51.333  13.775  1.00  0.00    -0.267 OA
HETATM   11  H   UNL     1      16.717  52.713  16.225  1.00  0.00     0.169 HD
BRANCH   9  12
HETATM   12  C   UNL     1      15.785  53.595  13.981  1.00  0.00     0.032 A 
HETATM   13  C   UNL     1      17.040  54.342  13.869  1.00  0.00     0.017 A 
HETATM   14  C   UNL     1      17.035  55.692  13.362  1.00  0.00     0.010 A 
HETATM   15  C   UNL     1      15.769  56.302  12.962  1.00  0.00    -0.033 A 
HETATM   16  C   UNL     1      14.540  55.536  13.079  1.00  0.00     0.010 A 
HETATM   17  C   UNL     1      14.540  54.214  13.576  1.00  0.00     0.017 A 
BRANCH  15  18
HETATM   18  C   UNL     1      15.668  57.744  12.430  1.00  0.00     0.273 C 
BRANCH  18  19
HETATM   19  N   UNL     1      14.368  58.454  12.623  1.00  0.00    -0.064 N 
HETATM   20  C   UNL     1      14.600  59.867  13.097  1.00  0.00     0.263 C 
HETATM   21  C   UNL     1      13.258  60.617  13.324  1.00  0.00     0.262 C 
HETATM   22  N   UNL     1      12.415  60.614  12.057  1.00  0.00    -0.072 N 
HETATM   23  C   UNL     1      12.156  59.186  11.573  1.00  0.00     0.262 C 
HETATM   24  C   UNL     1      11.134  61.318  12.215  1.00  0.00     0.269 C 
HETATM   25  H   UNL     1      12.960  61.120  11.359  1.00  0.00     0.279 HD
HETATM   26  C   UNL     1      13.521  58.459  11.347  1.00  0.00     0.263 C 
HETATM   27  H   UNL     1      13.849  57.941  13.336  1.00  0.00     0.280 HD
ENDBRANCH  18  19
ENDBRANCH  15  18
ENDBRANCH   9  12
ENDBRANCH   5   8
BRANCH   1  28
HETATM   28  N   UNL     1      18.073  47.866  17.925  1.00  0.00    -0.188 N 
HETATM   29  H   UNL     1      18.158  47.016  17.436  1.00  0.00     0.184 HD
BRANCH  28  30
HETATM   30  C   UNL     1      19.037  48.221  18.856  1.00  0.00     0.727 A 
HETATM   31  N   UNL     1      20.014  49.067  18.467  1.00  0.00    -0.062 NA
HETATM   32  C   UNL     1      21.016  49.462  19.324  1.00  0.00     0.089 A 
HETATM   33  C   UNL     1      21.032  48.972  20.673  1.00  0.00     0.053 A 
HETATM   34  C   UNL     1      19.997  48.090  21.055  1.00  0.00     0.139 A 
HETATM   35  N   UNL     1      19.024  47.729  20.148  1.00  0.00    -0.075 NA
BRANCH  32  36
HETATM   36  C   UNL     1      22.043  50.399  18.769  1.00  0.00     0.011 A 
HETATM   37  C   UNL     1      23.269  49.942  18.129  1.00  0.00     0.017 A 
HETATM   38  C   UNL     1      24.229  50.889  17.609  1.00  0.00     0.020 A 
HETATM   39  C   UNL     1      23.942  52.293  17.743  1.00  0.00     0.116 A 
HETATM   40  N   UNL     1      22.758  52.722  18.360  1.00  0.00    -0.272 NA
HETATM   41  C   UNL     1      21.815  51.833  18.868  1.00  0.00     0.130 A 
ENDBRANCH  32  36
ENDBRANCH  28  30
ENDBRANCH   1  28
TORSDOF 7
ENDMDL
MODEL 4
REMARK VINA RESULT:    -7.050      1.620     13.560
REMARK INTER + INTRA:         -10.606
REMARK INTER:                  -9.652
REMARK INTRA:                  -0.954
REMARK UNBOUND:                -0.671
REMARK  7 active torsions:
REMARK  status: ('A' for Active; 'I' for Inactive)
REMARK    1  A    between atoms: C_1  and  N_2 
REMARK    2  A    between atoms: N_2  and  C_16 
REMARK    3  A    between atoms: C_10  and  N_11 
REMARK       I    between atoms: N_11  and  C_25 
REMARK    4  A    between atoms: N_13  and  C_32 
REMARK    5  A    between atoms: C_17  and  C_20 
REMARK    6  A    between atoms: C_25  and  C_26 
REMARK    7  A    between atoms: C_31  and  C_32 
ROOT
HETATM    1  C   UNL     1      16.981  48.627  17.574  1.00  0.00     0.057 A 
HETATM    2  C   UNL     1      15.673  48.352  18.180  1.00  0.00    -0.035 A 
HETATM    3  C   UNL     1      14.614  49.296  17.963  1.00  0.00     0.011 A 
HETATM    4  C   UNL     1      14.834  50.478  17.168  1.00  0.00     0.030 A 
HETATM    5  C   UNL     1      16.103  50.746  16.575  1.00  0.00     0.037 A 
HETATM    6  C   UNL     1      17.181  49.794  16.794  1.00  0.00     0.060 A 
HETATM    7  C   UNL     1      15.378  47.098  19.036  1.00  0.00     0.050 C 
ENDROOT
BRANCH   5   8
HETATM    8  N   UNL     1      16.243  51.944  15.786  1.00  0.00    -0.323 N 
HETATM    9  C   UNL     1      15.761  52.186  14.510  1.00  0.00     0.256 C 
HETATM   10  O   UNL     1      15.315  51.325  13.766  1.00  0.00    -0.267 OA
HETATM   11  H   UNL     1      16.744  52.681  16.206  1.00  0.00     0.169 HD
BRANCH   9  12
HETATM   12  C   UNL     1      15.791  53.582  13.979  1.00  0.00     0.032 A 
HETATM   13  C   UNL     1      17.051  54.318  13.847  1.00  0.00     0.017 A 
HETATM   14  C   UNL     1      17.051  55.670  13.347  1.00  0.00     0.010 A 
HETATM   15  C   UNL     1      15.784  56.295  12.975  1.00  0.00    -0.033 A 
HETATM   16  C   UNL     1      14.549  55.541  13.112  1.00  0.00     0.010 A 
HETATM   17  C   UNL     1      14.546  54.216  13.602  1.00  0.00     0.017 A 
BRANCH  15  18
HETATM   18  C   UNL     1      15.686  57.741  12.453  1.00  0.00     0.273 C 
BRANCH  18  19
HETATM   19  N   UNL     1      14.381  58.446  12.631  1.00  0.00    -0.064 N 
HETATM   20  C   UNL     1      14.604  59.864  13.095  1.00  0.00     0.263 C 
HETATM   21  C   UNL     1      13.256  60.610  13.307  1.00  0.00     0.262 C 
HETATM   22  N   UNL     1      12.421  60.591  12.035  1.00  0.00    -0.072 N 
HETATM   23  C   UNL     1      12.173  59.158  11.561  1.00  0.00     0.262 C 
HETATM   24  C   UNL     1      11.136  61.290  12.178  1.00  0.00     0.269 C 
HETATM   25  H   UNL     1      12.969  61.094  11.336  1.00  0.00     0.279 HD
HETATM   26  C   UNL     1      13.544  58.436  11.350  1.00  0.00     0.263 C 
HETATM   27  H   UNL     1      13.861  57.937  13.346  1.00  0.00     0.280 HD
ENDBRANCH  18  19
ENDBRANCH  15  18
ENDBRANCH   9  12
ENDBRANCH   5   8
BRANCH   1  28
HETATM   28  N   UNL     1      18.052  47.747  17.752  1.00  0.00    -0.188 N 
HETATM   29  H   UNL     1      18.183  47.006  17.117  1.00  0.00     0.184 HD
BRANCH  28  30
HETATM   30  C   UNL     1      18.930  47.905  18.813  1.00  0.00     0.727 A 
HETATM   31  N   UNL     1      18.852  47.031  19.837  1.00  0.00    -0.062 NA
HETATM   32  C   UNL     1      19.680  47.122  20.934  1.00  0.00     0.089 A 
HETATM   33  C   UNL     1      20.659  48.169  21.001  1.00  0.00     0.053 A 
HETATM   34  C   UNL     1      20.721  49.070  19.915  1.00  0.00     0.139 A 
HETATM   35  N   UNL     1      19.862  48.926  18.847  1.00  0.00    -0.075 NA
BRANCH  32  36
HETATM   36  C   UNL     1      19.489  46.094  22.006  1.00  0.00     0.011 A 
HETATM   37  C   UNL     1      18.844  44.810  21.766  1.00  0.00     0.017 A 
HETATM   38  C   UNL     1      18.686  43.852  22.835  1.00  0.00     0.020 A 
HETATM   39  C   UNL     1      19.179  44.200  24.142  1.00  0.00     0.116 A 
HETATM   40  N   UNL     1      19.800  45.439  24.360  1.00  0.00    -0.272 NA
HETATM   41  C   UNL     1      19.968  46.380  23.350  1.00  0.00     0.130 A 
ENDBRANCH  32  36
ENDBRANCH  28  30
ENDBRANCH   1  28
TORSDOF 7
ENDMDL
