USER    Estimated Free Energy of Binding    =   +1.11 kcal/mol  [=(1)+(2)+(3)-(4)]
REMARK  7 active torsions:
REMARK  status: ('A' for Active; 'I' for Inactive)
REMARK    1  A    between atoms: C_1  and  N_2 
REMARK    2  A    between atoms: N_2  and  C_16 
REMARK    3  A    between atoms: C_10  and  N_11 
REMARK       I    between atoms: N_11  and  C_25 
REMARK    4  A    between atoms: N_13  and  C_32 
REMARK    5  A    between atoms: C_17  and  C_20 
REMARK    6  A    between atoms: C_25  and  C_26 
REMARK    7  A    between atoms: C_31  and  C_32 
ROOT
ATOM      1  C   UNL     1      12.017   5.333  -2.297 +0.00 -0.00    +0.057 A 
ATOM      2  C   UNL     1      11.499   6.600  -2.828 +0.00 +0.00    -0.035 A 
ATOM      3  C   UNL     1      12.287   7.785  -2.643 +0.00 -0.00    +0.011 A 
ATOM      4  C   UNL     1      13.553   7.726  -1.955 +0.00 -0.00    +0.030 A 
ATOM      5  C   UNL     1      14.060   6.497  -1.441 +0.00 -0.00    +0.037 A 
ATOM      6  C   UNL     1      13.264   5.293  -1.624 +0.00 -0.00    +0.060 A 
ATOM      7  C   UNL     1      10.153   6.721  -3.579 +0.00 -0.00    +0.050 C 
ENDROOT
BRANCH   5   8
ATOM      8  N   UNL     1      15.338   6.516  -0.773 +0.00 +0.02    -0.323 N 
ATOM      9  C   UNL     1      16.172   5.444  -0.500 +0.00 -0.02    +0.256 C 
ATOM     10  O   UNL     1      15.845   4.271  -0.601 +0.00 +0.02    -0.267 OA
ATOM     11  H   UNL     1      15.655   7.398  -0.474 +0.00 -0.01    +0.169 HD
BRANCH   9  12
ATOM     12  C   UNL     1      17.566   5.715  -0.035 +0.00 -0.00    +0.032 A 
ATOM     13  C   UNL     1      17.965   7.042   0.440 +0.00 -0.00    +0.017 A 
ATOM     14  C   UNL     1      19.320   7.281   0.867 +0.00 -0.00    +0.010 A 
ATOM     15  C   UNL     1      20.288   6.187   0.823 +0.00 +0.00    -0.033 A 
ATOM     16  C   UNL     1      19.865   4.879   0.352 +0.00 -0.00    +0.010 A 
ATOM     17  C   UNL     1      18.537   4.641  -0.068 +0.00 -0.00    +0.017 A 
BRANCH  15  18
ATOM     18  C   UNL     1      21.761   6.357   1.239 +0.00 -0.02    +0.273 C 
BRANCH  18  19
ATOM     19  N   UNL     1      22.044   6.537   2.695 +0.00 +0.01    -0.064 N 
ATOM     20  C   UNL     1      21.965   7.995   3.074 +0.00 -0.02    +0.263 C 
ATOM     21  C   UNL     1      22.277   8.207   4.582 +0.00 -0.02    +0.262 C 
ATOM     22  N   UNL     1      21.338   7.381   5.450 +0.00 +0.01    -0.072 N 
ATOM     23  C   UNL     1      21.419   5.896   5.089 +0.00 -0.02    +0.262 C 
ATOM     24  C   UNL     1      21.586   7.550   6.889 +0.00 -0.02    +0.269 C 
ATOM     25  H   UNL     1      20.400   7.731   5.256 +0.00 -0.02    +0.279 HD
ATOM     26  C   UNL     1      21.095   5.714   3.570 +0.00 -0.02    +0.263 C 
ATOM     27  H   UNL     1      22.991   6.198   2.861 +0.00 -0.02    +0.280 HD
ENDBRANCH  18  19
ENDBRANCH  15  18
ENDBRANCH   9  12
ENDBRANCH   5   8
BRANCH   1  28
ATOM     28  N   UNL     1      11.294   4.147  -2.445 +0.00 +0.01    -0.188 N 
ATOM     29  H   UNL     1      10.349   4.115  -2.170 +0.00 -0.01    +0.184 HD
BRANCH  28  30
ATOM     30  C   UNL     1      11.893   3.013  -2.973 +0.00 -0.05    +0.727 A 
ATOM     31  N   UNL     1      13.208   2.823  -2.739 +0.00 +0.00    -0.062 NA
ATOM     32  C   UNL     1      13.883   1.730  -3.236 +0.00 -0.01    +0.089 A 
ATOM     33  C   UNL     1      13.180   0.757  -4.022 +0.00 -0.00    +0.053 A 
ATOM     34  C   UNL     1      11.804   0.979  -4.251 +0.00 -0.01    +0.139 A 
ATOM     35  N   UNL     1      11.187   2.095  -3.728 +0.00 +0.01    -0.075 NA
BRANCH  32  36
ATOM     36  C   UNL     1      15.341   1.637  -2.910 +0.00 -0.00    +0.011 A 
ATOM     37  C   UNL     1      16.300   2.676  -3.264 +0.00 -0.00    +0.017 A 
ATOM     38  C   UNL     1      17.698   2.538  -2.925 +0.00 -0.00    +0.020 A 
ATOM     39  C   UNL     1      18.117   1.348  -2.233 +0.00 -0.01    +0.116 A 
ATOM     40  N   UNL     1      17.185   0.355  -1.896 +0.00 +0.02    -0.272 NA
ATOM     41  C   UNL     1      15.833   0.462  -2.207 +0.00 -0.01    +0.130 A 
ENDBRANCH  32  36
ENDBRANCH  28  30
ENDBRANCH   1  28
TORSDOF 7
TER
ENDMDL
