REMARK VINA RESULT:   -13.242      0.000      0.000
REMARK INTER + INTRA:         -19.208
REMARK INTER:                 -18.777
REMARK INTRA:                  -0.432
REMARK UNBOUND:                -0.548
REMARK  7 active torsions:
REMARK  status: ('A' for Active; 'I' for Inactive)
REMARK    1  A    between atoms: C_1  and  N_2 
REMARK    2  A    between atoms: N_2  and  C_16 
REMARK    3  A    between atoms: C_10  and  N_11 
REMARK       I    between atoms: N_11  and  C_25 
REMARK    4  A    between atoms: N_13  and  C_32 
REMARK    5  A    between atoms: C_17  and  C_20 
REMARK    6  A    between atoms: C_25  and  C_26 
REMARK    7  A    between atoms: C_31  and  C_32 
ROOT
HETATM    1  C   UNL     1      15.844  54.721  12.295  1.00  0.00     0.057 A 
HETATM    2  C   UNL     1      16.958  54.593  11.347  1.00  0.00    -0.035 A 
HETATM    3  C   UNL     1      17.923  53.555  11.571  1.00  0.00     0.011 A 
HETATM    4  C   UNL     1      17.796  52.663  12.697  1.00  0.00     0.030 A 
HETATM    5  C   UNL     1      16.714  52.782  13.617  1.00  0.00     0.037 A 
HETATM    6  C   UNL     1      15.734  53.834  13.396  1.00  0.00     0.060 A 
HETATM    7  C   UNL     1      17.141  55.516  10.119  1.00  0.00     0.050 C 
ENDROOT
BRANCH   5   8
HETATM    8  N   UNL     1      16.649  51.848  14.714  1.00  0.00    -0.323 N 
HETATM    9  C   UNL     1      15.699  51.780  15.719  1.00  0.00     0.256 C 
HETATM   10  O   UNL     1      14.874  52.651  15.951  1.00  0.00    -0.267 OA
HETATM   11  H   UNL     1      17.368  51.177  14.752  1.00  0.00     0.169 HD
BRANCH   9  12
HETATM   12  C   UNL     1      15.671  50.577  16.605  1.00  0.00     0.032 A 
HETATM   13  C   UNL     1      14.467  50.217  17.360  1.00  0.00     0.017 A 
HETATM   14  C   UNL     1      14.472  49.060  18.221  1.00  0.00     0.010 A 
HETATM   15  C   UNL     1      15.686  48.254  18.330  1.00  0.00    -0.033 A 
HETATM   16  C   UNL     1      16.864  48.631  17.566  1.00  0.00     0.010 A 
HETATM   17  C   UNL     1      16.863  49.764  16.722  1.00  0.00     0.017 A 
BRANCH  15  18
HETATM   18  C   UNL     1      15.788  47.016  19.240  1.00  0.00     0.273 C 
BRANCH  18  19
HETATM   19  N   UNL     1      17.046  46.848  20.027  1.00  0.00    -0.064 N 
HETATM   20  C   UNL     1      17.194  47.960  21.035  1.00  0.00     0.263 C 
HETATM   21  C   UNL     1      18.509  47.815  21.851  1.00  0.00     0.262 C 
HETATM   22  N   UNL     1      18.571  46.460  22.542  1.00  0.00    -0.072 N 
HETATM   23  C   UNL     1      18.439  45.321  21.530  1.00  0.00     0.262 C 
HETATM   24  C   UNL     1      19.794  46.273  23.335  1.00  0.00     0.269 C 
HETATM   25  H   UNL     1      17.781  46.441  23.187  1.00  0.00     0.279 HD
HETATM   26  C   UNL     1      17.106  45.489  20.730  1.00  0.00     0.263 C 
HETATM   27  H   UNL     1      17.822  46.889  19.366  1.00  0.00     0.280 HD
ENDBRANCH  18  19
ENDBRANCH  15  18
ENDBRANCH   9  12
ENDBRANCH   5   8
BRANCH   1  28
HETATM   28  N   UNL     1      14.875  55.713  12.131  1.00  0.00    -0.188 N 
HETATM   29  H   UNL     1      14.007  55.483  11.726  1.00  0.00     0.184 HD
BRANCH  28  30
HETATM   30  C   UNL     1      15.122  57.017  12.531  1.00  0.00     0.727 A 
HETATM   31  N   UNL     1      14.135  57.924  12.379  1.00  0.00    -0.062 NA
HETATM   32  C   UNL     1      14.299  59.243  12.740  1.00  0.00     0.089 A 
HETATM   33  C   UNL     1      15.547  59.677  13.298  1.00  0.00     0.053 A 
HETATM   34  C   UNL     1      16.563  58.707  13.448  1.00  0.00     0.139 A 
HETATM   35  N   UNL     1      16.337  57.403  13.064  1.00  0.00    -0.075 NA
BRANCH  32  36
HETATM   36  C   UNL     1      13.130  60.151  12.515  1.00  0.00     0.011 A 
HETATM   37  C   UNL     1      13.084  61.521  13.011  1.00  0.00     0.017 A 
HETATM   38  C   UNL     1      11.931  62.356  12.767  1.00  0.00     0.020 A 
HETATM   39  C   UNL     1      10.830  61.799  12.025  1.00  0.00     0.116 A 
HETATM   40  N   UNL     1      10.887  60.480  11.551  1.00  0.00    -0.272 NA
HETATM   41  C   UNL     1      11.984  59.653  11.769  1.00  0.00     0.130 A 
ENDBRANCH  32  36
ENDBRANCH  28  30
ENDBRANCH   1  28
TORSDOF 7
ENDMDL
